MODEL 1
REMARK VINA RESULT:    -9.436      0.000      0.000
REMARK INTER + INTRA:          -6.839
REMARK INTER:                 -11.626
REMARK INTRA:                   4.786
REMARK UNBOUND:                 5.355
REMARK  Name = ZINC000096316391
REMARK  9 active torsions:
REMARK  status: ('A' for Active; 'I' for Inactive)
REMARK    1  A    between atoms: C_1  and  C_2
REMARK    2  A    between atoms: C_2  and  C_3
REMARK    3  A    between atoms: C_3  and  C_4
REMARK    4  A    between atoms: C_4  and  C_5
REMARK    5  A    between atoms: C_8  and  O_9
REMARK    6  A    between atoms: O_9  and  C_10
REMARK    7  A    between atoms: N_18  and  C_19
REMARK    8  A    between atoms: C_25  and  O_26
REMARK    9  A    between atoms: O_26  and  C_27
REMARK                            x       y       z     vdW  Elec       q    Type
REMARK                         _______ _______ _______ _____ _____    ______ ____
ROOT
ATOM      1  C   UNL     1      -1.461   3.197 -23.796  0.00  0.00    +0.181 C 
ATOM      2  O   UNL     1      -1.803   3.063 -22.326  0.00  0.00    -0.473 OA
ATOM      3  C   UNL     1      -3.281   3.143 -22.042  0.00  0.00    +0.168 A 
ATOM      4  C   UNL     1      -4.195   3.115 -21.159  0.00  0.00    +0.162 A 
ATOM      5  C   UNL     1      -5.408   3.245 -21.509  0.00  0.00    +0.050 A 
ATOM      6  C   UNL     1      -5.709   3.399 -22.719  0.00  0.00    +0.008 A 
ATOM      7  C   UNL     1      -4.802   3.426 -23.592  0.00  0.00    -0.034 A 
ATOM      8  C   UNL     1      -5.105   3.582 -24.823  0.00  0.00    +0.094 C 
ATOM      9  C   UNL     1      -4.200   3.609 -25.693  0.00  0.00    +0.096 C 
ATOM     10  C   UNL     1      -2.985   3.480 -25.345  0.00  0.00    -0.007 C 
ATOM     11  C   UNL     1      -2.073   3.507 -26.226  0.00  0.00    +0.009 C 
ATOM     12  C   UNL     1      -0.869   3.381 -25.889  0.00  0.00    +0.045 C 
ATOM     13  N   UNL     1      -3.249   3.654 -26.761  0.00  0.00    +0.239 N 
ATOM     14  H   UNL     1      -3.525   3.781 -27.735  0.00  0.00    +0.204 HD
ATOM     15  C   UNL     1      -3.608   3.811 -27.953  0.00  0.00    +0.191 C 
ATOM     16  C   UNL     1      -1.886   3.513 -26.408  0.00  0.00    +0.133 C 
ATOM     17  C   UNL     1      -1.577   3.341 -25.037  0.00  0.00    +0.071 C 
ATOM     18  C   UNL     1      -3.588   3.299 -23.263  0.00  0.00    +0.016 A 
ATOM     19  C   UNL     1      -0.559   3.225 -24.669  0.00  0.00    +0.142 C 
ATOM     20  C   UNL     1      -2.687   3.326 -24.135  0.00  0.00    +0.077 C 
ENDROOT
BRANCH   4  21
ATOM     21  O   UNL     1      -3.898   2.962 -19.948  0.00  0.00    -0.491 OA
ATOM     22  C   UNL     1      -3.076   3.734 -19.399  0.00  0.00    +0.277 C 
ENDBRANCH   4  21
BRANCH  19  23
ATOM     23  O   UNL     1       0.645   3.098 -24.336  0.00  0.00    -0.495 OA
ATOM     24  C   UNL     1       1.521   2.896 -25.212  0.00  0.00    +0.276 C 
ENDBRANCH  19  23
BRANCH   1  25
ATOM     25  C   UNL     1      -0.340   3.047 -23.190  0.00  0.00    +0.057 C 
BRANCH  25  26
ATOM     26  C   UNL     1      -0.260   2.563 -22.013  0.00  0.00    +0.004 C 
BRANCH  26  28
ATOM     27  C   UNL     1       1.550   1.486 -21.447  0.00  0.00    +0.004 C 
ATOM     28  C   UNL     1       0.334   1.478 -21.790  0.00  0.00    -0.003 C 
ENDBRANCH  26  28
ENDBRANCH  25  26
ENDBRANCH   1  25
TORSDOF 5
ENDMDL
MODEL 2
REMARK VINA RESULT:    -9.039      1.868      4.367
REMARK INTER + INTRA:          -6.326
REMARK INTER:                 -11.004
REMARK INTRA:                   4.678
REMARK UNBOUND:                 5.355
REMARK  Name = ZINC000096316391
REMARK  9 active torsions:
REMARK  status: ('A' for Active; 'I' for Inactive)
REMARK    1  A    between atoms: C_1  and  C_2
REMARK    2  A    between atoms: C_2  and  C_3
REMARK    3  A    between atoms: C_3  and  C_4
REMARK    4  A    between atoms: C_4  and  C_5
REMARK    5  A    between atoms: C_8  and  O_9
REMARK    6  A    between atoms: O_9  and  C_10
REMARK    7  A    between atoms: N_18  and  C_19
REMARK    8  A    between atoms: C_25  and  O_26
REMARK    9  A    between atoms: O_26  and  C_27
REMARK                            x       y       z     vdW  Elec       q    Type
REMARK                         _______ _______ _______ _____ _____    ______ ____
ROOT
ATOM      1  C   UNL     1      -1.197   2.797 -23.345  0.00  0.00    +0.181 C 
ATOM      2  O   UNL     1      -1.279   2.953 -24.849  0.00  0.00    -0.473 OA
ATOM      3  C   UNL     1      -2.664   3.280 -25.345  0.00  0.00    +0.168 A 
ATOM      4  C   UNL     1      -3.401   3.522 -26.353  0.00  0.00    +0.162 A 
ATOM      5  C   UNL     1      -4.636   3.758 -26.182  0.00  0.00    +0.050 A 
ATOM      6  C   UNL     1      -5.133   3.752 -25.029  0.00  0.00    +0.008 A 
ATOM      7  C   UNL     1      -4.402   3.512 -24.032  0.00  0.00    -0.034 A 
ATOM      8  C   UNL     1      -4.904   3.505 -22.858  0.00  0.00    +0.094 C 
ATOM      9  C   UNL     1      -4.174   3.265 -21.866  0.00  0.00    +0.096 C 
ATOM     10  C   UNL     1      -2.937   3.030 -22.033  0.00  0.00    -0.007 C 
ATOM     11  C   UNL     1      -2.202   2.788 -21.028  0.00  0.00    +0.009 C 
ATOM     12  C   UNL     1      -0.977   2.553 -21.186  0.00  0.00    +0.045 C 
ATOM     13  N   UNL     1      -3.433   3.005 -20.670  0.00  0.00    +0.239 N 
ATOM     14  H   UNL     1      -3.866   3.007 -19.746  0.00  0.00    +0.204 HD
ATOM     15  C   UNL     1      -3.983   3.012 -19.542  0.00  0.00    +0.191 C 
ATOM     16  C   UNL     1      -2.052   2.738 -20.821  0.00  0.00    +0.133 C 
ATOM     17  C   UNL     1      -1.519   2.751 -22.133  0.00  0.00    +0.071 C 
ATOM     18  C   UNL     1      -3.169   3.275 -24.182  0.00  0.00    +0.016 A 
ATOM     19  C   UNL     1      -0.470   2.558 -22.349  0.00  0.00    +0.142 C 
ATOM     20  C   UNL     1      -2.443   3.036 -23.187  0.00  0.00    +0.077 C 
ENDROOT
BRANCH   4  21
ATOM     21  O   UNL     1      -2.908   3.529 -27.508  0.00  0.00    -0.491 OA
ATOM     22  C   UNL     1      -3.652   3.400 -28.510  0.00  0.00    +0.277 C 
ENDBRANCH   4  21
BRANCH  19  23
ATOM     23  O   UNL     1       0.754   2.323 -22.503  0.00  0.00    -0.495 OA
ATOM     24  C   UNL     1       1.345   1.534 -21.726  0.00  0.00    +0.276 C 
ENDBRANCH  19  23
BRANCH   1  25
ATOM     25  C   UNL     1      -0.007   2.596 -23.781  0.00  0.00    +0.057 C 
BRANCH  25  26
ATOM     26  C   UNL     1       0.383   3.018 -24.919  0.00  0.00    +0.004 C 
BRANCH  26  28
ATOM     27  C   UNL     1       2.253   2.019 -25.430  0.00  0.00    +0.004 C 
ATOM     28  C   UNL     1       1.603   3.081 -25.212  0.00  0.00    -0.003 C 
ENDBRANCH  26  28
ENDBRANCH  25  26
ENDBRANCH   1  25
TORSDOF 5
ENDMDL
MODEL 3
REMARK VINA RESULT:    -8.725      1.714      4.248
REMARK INTER + INTRA:          -5.920
REMARK INTER:                 -11.523
REMARK INTRA:                   5.602
REMARK UNBOUND:                 5.355
REMARK  Name = ZINC000096316391
REMARK  9 active torsions:
REMARK  status: ('A' for Active; 'I' for Inactive)
REMARK    1  A    between atoms: C_1  and  C_2
REMARK    2  A    between atoms: C_2  and  C_3
REMARK    3  A    between atoms: C_3  and  C_4
REMARK    4  A    between atoms: C_4  and  C_5
REMARK    5  A    between atoms: C_8  and  O_9
REMARK    6  A    between atoms: O_9  and  C_10
REMARK    7  A    between atoms: N_18  and  C_19
REMARK    8  A    between atoms: C_25  and  O_26
REMARK    9  A    between atoms: O_26  and  C_27
REMARK                            x       y       z     vdW  Elec       q    Type
REMARK                         _______ _______ _______ _____ _____    ______ ____
ROOT
ATOM      1  C   UNL     1      -1.859   3.132 -24.545  0.00  0.00    +0.181 C 
ATOM      2  O   UNL     1      -0.412   2.733 -24.337  0.00  0.00    -0.473 OA
ATOM      3  C   UNL     1      -0.117   2.246 -22.941  0.00  0.00    +0.168 A 
ATOM      4  C   UNL     1       0.760   1.800 -22.136  0.00  0.00    +0.162 A 
ATOM      5  C   UNL     1       0.429   1.519 -20.943  0.00  0.00    +0.050 A 
ATOM      6  C   UNL     1      -0.755   1.679 -20.555  0.00  0.00    +0.008 A 
ATOM      7  C   UNL     1      -1.622   2.120 -21.355  0.00  0.00    -0.034 A 
ATOM      8  C   UNL     1      -2.827   2.284 -20.964  0.00  0.00    +0.094 C 
ATOM      9  C   UNL     1      -3.690   2.724 -21.761  0.00  0.00    +0.096 C 
ATOM     10  C   UNL     1      -3.362   3.005 -22.955  0.00  0.00    -0.007 C 
ATOM     11  C   UNL     1      -4.237   3.450 -23.759  0.00  0.00    +0.009 C 
ATOM     12  C   UNL     1      -3.921   3.731 -24.943  0.00  0.00    +0.045 C 
ATOM     13  N   UNL     1      -4.749   3.218 -22.587  0.00  0.00    +0.239 N 
ATOM     14  H   UNL     1      -5.703   3.336 -22.242  0.00  0.00    +0.204 HD
ATOM     15  C   UNL     1      -5.916   3.357 -22.145  0.00  0.00    +0.191 C 
ATOM     16  C   UNL     1      -4.418   3.542 -23.924  0.00  0.00    +0.133 C 
ATOM     17  C   UNL     1      -3.076   3.351 -24.332  0.00  0.00    +0.071 C 
ATOM     18  C   UNL     1      -1.312   2.406 -22.547  0.00  0.00    +0.016 A 
ATOM     19  C   UNL     1      -2.726   3.572 -25.339  0.00  0.00    +0.142 C 
ATOM     20  C   UNL     1      -2.179   2.845 -23.340  0.00  0.00    +0.077 C 
ENDROOT
BRANCH   4  21
ATOM     21  O   UNL     1       1.945   1.639 -22.520  0.00  0.00    -0.491 OA
ATOM     22  C   UNL     1       2.648   0.725 -22.024  0.00  0.00    +0.277 C 
ENDBRANCH   4  21
BRANCH  19  23
ATOM     23  O   UNL     1      -2.412   3.854 -26.523  0.00  0.00    -0.495 OA
ATOM     24  C   UNL     1      -3.236   3.668 -27.451  0.00  0.00    +0.276 C 
ENDBRANCH  19  23
BRANCH   1  25
ATOM     25  C   UNL     1      -1.276   3.334 -25.670  0.00  0.00    +0.057 C 
BRANCH  25  26
ATOM     26  C   UNL     1      -0.011   3.257 -25.807  0.00  0.00    +0.004 C 
BRANCH  26  28
ATOM     27  C   UNL     1       1.589   4.490 -24.986  0.00  0.00    +0.004 C 
ATOM     28  C   UNL     1       0.705   4.288 -25.866  0.00  0.00    -0.003 C 
ENDBRANCH  26  28
ENDBRANCH  25  26
ENDBRANCH   1  25
TORSDOF 5
ENDMDL
MODEL 4
REMARK VINA RESULT:    -8.706      1.482      3.503
REMARK INTER + INTRA:          -5.896
REMARK INTER:                 -11.728
REMARK INTRA:                   5.832
REMARK UNBOUND:                 5.355
REMARK  Name = ZINC000096316391
REMARK  9 active torsions:
REMARK  status: ('A' for Active; 'I' for Inactive)
REMARK    1  A    between atoms: C_1  and  C_2
REMARK    2  A    between atoms: C_2  and  C_3
REMARK    3  A    between atoms: C_3  and  C_4
REMARK    4  A    between atoms: C_4  and  C_5
REMARK    5  A    between atoms: C_8  and  O_9
REMARK    6  A    between atoms: O_9  and  C_10
REMARK    7  A    between atoms: N_18  and  C_19
REMARK    8  A    between atoms: C_25  and  O_26
REMARK    9  A    between atoms: O_26  and  C_27
REMARK                            x       y       z     vdW  Elec       q    Type
REMARK                         _______ _______ _______ _____ _____    ______ ____
ROOT
ATOM      1  C   UNL     1      -1.581   2.617 -22.494  0.00  0.00    +0.181 C 
ATOM      2  O   UNL     1      -3.057   2.855 -22.253  0.00  0.00    -0.473 OA
ATOM      3  C   UNL     1      -3.791   3.358 -23.469  0.00  0.00    +0.168 A 
ATOM      4  C   UNL     1      -4.904   3.731 -23.957  0.00  0.00    +0.162 A 
ATOM      5  C   UNL     1      -4.965   4.093 -25.172  0.00  0.00    +0.050 A 
ATOM      6  C   UNL     1      -3.935   4.086 -25.891  0.00  0.00    +0.008 A 
ATOM      7  C   UNL     1      -2.834   3.717 -25.405  0.00  0.00    -0.034 A 
ATOM      8  C   UNL     1      -1.785   3.708 -26.134  0.00  0.00    +0.094 C 
ATOM      9  C   UNL     1      -0.687   3.340 -25.648  0.00  0.00    +0.096 C 
ATOM     10  C   UNL     1      -0.624   2.976 -24.433  0.00  0.00    -0.007 C 
ATOM     11  C   UNL     1       0.486   2.604 -23.945  0.00  0.00    +0.009 C 
ATOM     12  C   UNL     1       0.557   2.243 -22.743  0.00  0.00    +0.045 C 
ATOM     13  N   UNL     1       0.609   2.939 -25.195  0.00  0.00    +0.239 N 
ATOM     14  H   UNL     1       1.428   2.944 -25.805  0.00  0.00    +0.204 HD
ATOM     15  C   UNL     1       1.605   2.952 -25.960  0.00  0.00    +0.191 C 
ATOM     16  C   UNL     1       0.715   2.528 -23.846  0.00  0.00    +0.133 C 
ATOM     17  C   UNL     1      -0.463   2.547 -23.059  0.00  0.00    +0.071 C 
ATOM     18  C   UNL     1      -2.754   3.352 -24.197  0.00  0.00    +0.016 A 
ATOM     19  C   UNL     1      -0.481   2.249 -22.012  0.00  0.00    +0.142 C 
ATOM     20  C   UNL     1      -1.655   2.984 -23.716  0.00  0.00    +0.077 C 
ENDROOT
BRANCH   4  21
ATOM     21  O   UNL     1      -5.937   3.739 -23.242  0.00  0.00    -0.491 OA
ATOM     22  C   UNL     1      -5.994   3.025 -22.212  0.00  0.00    +0.277 C 
ENDBRANCH   4  21
BRANCH  19  23
ATOM     23  O   UNL     1      -0.407   1.887 -20.812  0.00  0.00    -0.495 OA
ATOM     24  C   UNL     1       0.685   1.483 -20.344  0.00  0.00    +0.276 C 
ENDBRANCH  19  23
BRANCH   1  25
ATOM     25  C   UNL     1      -1.787   2.306 -21.267  0.00  0.00    +0.057 C 
BRANCH  25  26
ATOM     26  C   UNL     1      -2.886   2.564 -20.673  0.00  0.00    +0.004 C 
BRANCH  26  28
ATOM     27  C   UNL     1      -3.303   4.653 -20.208  0.00  0.00    +0.004 C 
ATOM     28  C   UNL     1      -2.974   3.493 -19.832  0.00  0.00    -0.003 C 
ENDBRANCH  26  28
ENDBRANCH  25  26
ENDBRANCH   1  25
TORSDOF 5
ENDMDL
MODEL 5
REMARK VINA RESULT:    -8.684      1.180      4.323
REMARK INTER + INTRA:          -5.868
REMARK INTER:                 -11.027
REMARK INTRA:                   5.160
REMARK UNBOUND:                 5.355
REMARK  Name = ZINC000096316391
REMARK  9 active torsions:
REMARK  status: ('A' for Active; 'I' for Inactive)
REMARK    1  A    between atoms: C_1  and  C_2
REMARK    2  A    between atoms: C_2  and  C_3
REMARK    3  A    between atoms: C_3  and  C_4
REMARK    4  A    between atoms: C_4  and  C_5
REMARK    5  A    between atoms: C_8  and  O_9
REMARK    6  A    between atoms: O_9  and  C_10
REMARK    7  A    between atoms: N_18  and  C_19
REMARK    8  A    between atoms: C_25  and  O_26
REMARK    9  A    between atoms: O_26  and  C_27
REMARK                            x       y       z     vdW  Elec       q    Type
REMARK                         _______ _______ _______ _____ _____    ______ ____
ROOT
ATOM      1  C   UNL     1      -2.751   2.774 -22.868  0.00  0.00    +0.181 C 
ATOM      2  O   UNL     1      -1.651   2.390 -21.900  0.00  0.00    -0.473 OA
ATOM      3  C   UNL     1      -0.275   2.410 -22.514  0.00  0.00    +0.168 A 
ATOM      4  C   UNL     1       0.970   2.227 -22.335  0.00  0.00    +0.162 A 
ATOM      5  C   UNL     1       1.775   2.405 -23.300  0.00  0.00    +0.050 A 
ATOM      6  C   UNL     1       1.349   2.761 -24.427  0.00  0.00    +0.008 A 
ATOM      7  C   UNL     1       0.116   2.942 -24.603  0.00  0.00    -0.034 A 
ATOM      8  C   UNL     1      -0.320   3.304 -25.747  0.00  0.00    +0.094 C 
ATOM      9  C   UNL     1      -1.550   3.484 -25.921  0.00  0.00    +0.096 C 
ATOM     10  C   UNL     1      -2.358   3.306 -24.957  0.00  0.00    -0.007 C 
ATOM     11  C   UNL     1      -3.600   3.489 -25.136  0.00  0.00    +0.009 C 
ATOM     12  C   UNL     1      -4.406   3.315 -24.187  0.00  0.00    +0.045 C 
ATOM     13  N   UNL     1      -2.929   3.716 -26.226  0.00  0.00    +0.239 N 
ATOM     14  H   UNL     1      -3.244   4.005 -27.153  0.00  0.00    +0.204 HD
ATOM     15  C   UNL     1      -3.297   4.071 -27.373  0.00  0.00    +0.191 C 
ATOM     16  C   UNL     1      -3.856   3.527 -25.174  0.00  0.00    +0.133 C 
ATOM     17  C   UNL     1      -3.347   3.126 -23.914  0.00  0.00    +0.071 C 
ATOM     18  C   UNL     1      -0.702   2.769 -23.653  0.00  0.00    +0.016 A 
ATOM     19  C   UNL     1      -3.981   2.955 -23.046  0.00  0.00    +0.142 C 
ATOM     20  C   UNL     1      -1.930   2.951 -23.832  0.00  0.00    +0.077 C 
ENDROOT
BRANCH   4  21
ATOM     21  O   UNL     1       1.400   1.871 -21.209  0.00  0.00    -0.491 OA
ATOM     22  C   UNL     1       2.595   1.511 -21.078  0.00  0.00    +0.277 C 
ENDBRANCH   4  21
BRANCH  19  23
ATOM     23  O   UNL     1      -4.788   2.782 -22.099  0.00  0.00    -0.495 OA
ATOM     24  C   UNL     1      -5.958   3.230 -22.182  0.00  0.00    +0.276 C 
ENDBRANCH  19  23
BRANCH   1  25
ATOM     25  C   UNL     1      -3.338   2.531 -21.753  0.00  0.00    +0.057 C 
BRANCH  25  26
ATOM     26  C   UNL     1      -2.760   2.695 -20.628  0.00  0.00    +0.004 C 
BRANCH  26  28
ATOM     27  C   UNL     1      -2.995   4.837 -20.290  0.00  0.00    +0.004 C 
ATOM     28  C   UNL     1      -3.066   3.648 -19.868  0.00  0.00    -0.003 C 
ENDBRANCH  26  28
ENDBRANCH  25  26
ENDBRANCH   1  25
TORSDOF 5
ENDMDL
MODEL 6
REMARK VINA RESULT:    -8.499      1.859      4.252
REMARK INTER + INTRA:          -5.629
REMARK INTER:                 -10.772
REMARK INTRA:                   5.143
REMARK UNBOUND:                 5.355
REMARK  Name = ZINC000096316391
REMARK  9 active torsions:
REMARK  status: ('A' for Active; 'I' for Inactive)
REMARK    1  A    between atoms: C_1  and  C_2
REMARK    2  A    between atoms: C_2  and  C_3
REMARK    3  A    between atoms: C_3  and  C_4
REMARK    4  A    between atoms: C_4  and  C_5
REMARK    5  A    between atoms: C_8  and  O_9
REMARK    6  A    between atoms: O_9  and  C_10
REMARK    7  A    between atoms: N_18  and  C_19
REMARK    8  A    between atoms: C_25  and  O_26
REMARK    9  A    between atoms: O_26  and  C_27
REMARK                            x       y       z     vdW  Elec       q    Type
REMARK                         _______ _______ _______ _____ _____    ______ ____
ROOT
ATOM      1  C   UNL     1      -1.346   3.215 -24.105  0.00  0.00    +0.181 C 
ATOM      2  O   UNL     1      -2.778   3.587 -24.430  0.00  0.00    -0.473 OA
ATOM      3  C   UNL     1      -3.741   3.316 -23.303  0.00  0.00    +0.168 A 
ATOM      4  C   UNL     1      -4.946   3.367 -22.901  0.00  0.00    +0.162 A 
ATOM      5  C   UNL     1      -5.233   2.964 -21.732  0.00  0.00    +0.050 A 
ATOM      6  C   UNL     1      -4.338   2.517 -20.973  0.00  0.00    +0.008 A 
ATOM      7  C   UNL     1      -3.145   2.467 -21.374  0.00  0.00    -0.034 A 
ATOM      8  C   UNL     1      -2.232   2.012 -20.605  0.00  0.00    +0.094 C 
ATOM      9  C   UNL     1      -1.043   1.963 -21.005  0.00  0.00    +0.096 C 
ATOM     10  C   UNL     1      -0.752   2.365 -22.174  0.00  0.00    -0.007 C 
ATOM     11  C   UNL     1       0.450   2.314 -22.576  0.00  0.00    +0.009 C 
ATOM     12  C   UNL     1       0.745   2.711 -23.731  0.00  0.00    +0.045 C 
ATOM     13  N   UNL     1       0.339   1.863 -21.361  0.00  0.00    +0.239 N 
ATOM     14  H   UNL     1       1.044   1.495 -20.722  0.00  0.00    +0.204 HD
ATOM     15  C   UNL     1       1.192   1.407 -20.561  0.00  0.00    +0.191 C 
ATOM     16  C   UNL     1       0.698   2.303 -22.657  0.00  0.00    +0.133 C 
ATOM     17  C   UNL     1      -0.333   2.803 -23.490  0.00  0.00    +0.071 C 
ATOM     18  C   UNL     1      -2.839   2.864 -22.535  0.00  0.00    +0.016 A 
ATOM     19  C   UNL     1      -0.156   3.164 -24.501  0.00  0.00    +0.142 C 
ATOM     20  C   UNL     1      -1.649   2.812 -22.930  0.00  0.00    +0.077 C 
ENDROOT
BRANCH   4  21
ATOM     21  O   UNL     1      -5.845   3.814 -23.656  0.00  0.00    -0.491 OA
ATOM     22  C   UNL     1      -5.550   4.605 -24.585  0.00  0.00    +0.277 C 
ENDBRANCH   4  21
BRANCH  19  23
ATOM     23  O   UNL     1       0.142   3.560 -25.656  0.00  0.00    -0.495 OA
ATOM     24  C   UNL     1       1.230   4.155 -25.853  0.00  0.00    +0.276 C 
ENDBRANCH  19  23
BRANCH   1  25
ATOM     25  C   UNL     1      -1.324   3.675 -25.303  0.00  0.00    +0.057 C 
BRANCH  25  26
ATOM     26  C   UNL     1      -2.388   3.907 -25.965  0.00  0.00    +0.004 C 
BRANCH  26  28
ATOM     27  C   UNL     1      -3.690   3.453 -27.655  0.00  0.00    +0.004 C 
ATOM     28  C   UNL     1      -2.538   3.477 -27.137  0.00  0.00    -0.003 C 
ENDBRANCH  26  28
ENDBRANCH  25  26
ENDBRANCH   1  25
TORSDOF 5
ENDMDL
MODEL 7
REMARK VINA RESULT:    -8.225      1.868      5.574
REMARK INTER + INTRA:          -5.274
REMARK INTER:                 -10.010
REMARK INTRA:                   4.736
REMARK UNBOUND:                 5.355
REMARK  Name = ZINC000096316391
REMARK  9 active torsions:
REMARK  status: ('A' for Active; 'I' for Inactive)
REMARK    1  A    between atoms: C_1  and  C_2
REMARK    2  A    between atoms: C_2  and  C_3
REMARK    3  A    between atoms: C_3  and  C_4
REMARK    4  A    between atoms: C_4  and  C_5
REMARK    5  A    between atoms: C_8  and  O_9
REMARK    6  A    between atoms: O_9  and  C_10
REMARK    7  A    between atoms: N_18  and  C_19
REMARK    8  A    between atoms: C_25  and  O_26
REMARK    9  A    between atoms: O_26  and  C_27
REMARK                            x       y       z     vdW  Elec       q    Type
REMARK                         _______ _______ _______ _____ _____    ______ ____
ROOT
ATOM      1  C   UNL     1      -2.816   3.392 -24.059  0.00  0.00    +0.181 C 
ATOM      2  O   UNL     1      -1.569   3.350 -24.917  0.00  0.00    -0.473 OA
ATOM      3  C   UNL     1      -0.344   2.880 -24.176  0.00  0.00    +0.168 A 
ATOM      4  C   UNL     1       0.899   2.623 -24.238  0.00  0.00    +0.162 A 
ATOM      5  C   UNL     1       1.505   2.211 -23.201  0.00  0.00    +0.050 A 
ATOM      6  C   UNL     1       0.885   2.055 -22.120  0.00  0.00    +0.008 A 
ATOM      7  C   UNL     1      -0.347   2.310 -22.062  0.00  0.00    -0.034 A 
ATOM      8  C   UNL     1      -0.981   2.153 -20.964  0.00  0.00    +0.094 C 
ATOM      9  C   UNL     1      -2.209   2.408 -20.907  0.00  0.00    +0.096 C 
ATOM     10  C   UNL     1      -2.817   2.821 -21.943  0.00  0.00    -0.007 C 
ATOM     11  C   UNL     1      -4.057   3.078 -21.882  0.00  0.00    +0.009 C 
ATOM     12  C   UNL     1      -4.667   3.487 -22.903  0.00  0.00    +0.045 C 
ATOM     13  N   UNL     1      -3.605   2.668 -20.734  0.00  0.00    +0.239 N 
ATOM     14  H   UNL     1      -4.081   2.532 -19.842  0.00  0.00    +0.204 HD
ATOM     15  C   UNL     1      -4.173   2.495 -19.628  0.00  0.00    +0.191 C 
ATOM     16  C   UNL     1      -4.313   3.130 -21.868  0.00  0.00    +0.133 C 
ATOM     17  C   UNL     1      -3.587   3.296 -23.074  0.00  0.00    +0.071 C 
ATOM     18  C   UNL     1      -0.967   2.722 -23.083  0.00  0.00    +0.016 A 
ATOM     19  C   UNL     1      -4.044   3.646 -23.997  0.00  0.00    +0.142 C 
ATOM     20  C   UNL     1      -2.195   2.976 -23.022  0.00  0.00    +0.077 C 
ENDROOT
BRANCH   4  21
ATOM     21  O   UNL     1       1.524   2.777 -25.317  0.00  0.00    -0.491 OA
ATOM     22  C   UNL     1       2.162   1.819 -25.816  0.00  0.00    +0.277 C 
ENDBRANCH   4  21
BRANCH  19  23
ATOM     23  O   UNL     1      -4.656   4.055 -25.015  0.00  0.00    -0.495 OA
ATOM     24  C   UNL     1      -5.849   3.716 -25.209  0.00  0.00    +0.276 C 
ENDBRANCH  19  23
BRANCH   1  25
ATOM     25  C   UNL     1      -3.182   3.787 -25.223  0.00  0.00    +0.057 C 
BRANCH  25  26
ATOM     26  C   UNL     1      -2.542   3.476 -26.282  0.00  0.00    +0.004 C 
BRANCH  26  28
ATOM     27  C   UNL     1      -3.609   3.242 -28.169  0.00  0.00    +0.004 C 
ATOM     28  C   UNL     1      -2.875   3.930 -27.405  0.00  0.00    -0.003 C 
ENDBRANCH  26  28
ENDBRANCH  25  26
ENDBRANCH   1  25
TORSDOF 5
ENDMDL
MODEL 8
REMARK VINA RESULT:    -7.466      1.974      4.819
REMARK INTER + INTRA:          -4.293
REMARK INTER:                  -9.482
REMARK INTRA:                   5.189
REMARK UNBOUND:                 5.355
REMARK  Name = ZINC000096316391
REMARK  9 active torsions:
REMARK  status: ('A' for Active; 'I' for Inactive)
REMARK    1  A    between atoms: C_1  and  C_2
REMARK    2  A    between atoms: C_2  and  C_3
REMARK    3  A    between atoms: C_3  and  C_4
REMARK    4  A    between atoms: C_4  and  C_5
REMARK    5  A    between atoms: C_8  and  O_9
REMARK    6  A    between atoms: O_9  and  C_10
REMARK    7  A    between atoms: N_18  and  C_19
REMARK    8  A    between atoms: C_25  and  O_26
REMARK    9  A    between atoms: O_26  and  C_27
REMARK                            x       y       z     vdW  Elec       q    Type
REMARK                         _______ _______ _______ _____ _____    ______ ____
ROOT
ATOM      1  C   UNL     1      -0.073   2.159 -22.372  0.00  0.00    +0.181 C 
ATOM      2  O   UNL     1      -1.547   2.273 -22.705  0.00  0.00    -0.473 OA
ATOM      3  C   UNL     1      -1.812   2.829 -24.080  0.00  0.00    +0.168 A 
ATOM      4  C   UNL     1      -2.687   3.165 -24.938  0.00  0.00    +0.162 A 
ATOM      5  C   UNL     1      -2.318   3.629 -26.061  0.00  0.00    +0.050 A 
ATOM      6  C   UNL     1      -1.098   3.756 -26.328  0.00  0.00    +0.008 A 
ATOM      7  C   UNL     1      -0.232   3.422 -25.477  0.00  0.00    -0.034 A 
ATOM      8  C   UNL     1       1.010   3.550 -25.745  0.00  0.00    +0.094 C 
ATOM      9  C   UNL     1       1.872   3.217 -24.895  0.00  0.00    +0.096 C 
ATOM     10  C   UNL     1       1.506   2.753 -23.771  0.00  0.00    -0.007 C 
ATOM     11  C   UNL     1       2.379   2.417 -22.915  0.00  0.00    +0.009 C 
ATOM     12  C   UNL     1       2.025   1.958 -21.800  0.00  0.00    +0.045 C 
ATOM     13  N   UNL     1       2.934   2.869 -24.001  0.00  0.00    +0.239 N 
ATOM     14  H   UNL     1       3.917   2.984 -24.247  0.00  0.00    +0.204 HD
ATOM     15  C   UNL     1       4.138   3.017 -24.322  0.00  0.00    +0.191 C 
ATOM     16  C   UNL     1       2.560   2.349 -22.739  0.00  0.00    +0.133 C 
ATOM     17  C   UNL     1       1.177   2.217 -22.467  0.00  0.00    +0.071 C 
ATOM     18  C   UNL     1      -0.580   2.959 -24.353  0.00  0.00    +0.016 A 
ATOM     19  C   UNL     1       0.792   1.827 -21.526  0.00  0.00    +0.142 C 
ATOM     20  C   UNL     1       0.285   2.627 -23.507  0.00  0.00    +0.077 C 
ENDROOT
BRANCH   4  21
ATOM     21  O   UNL     1      -3.909   3.040 -24.675  0.00  0.00    -0.491 OA
ATOM     22  C   UNL     1      -4.441   3.761 -23.797  0.00  0.00    +0.277 C 
ENDBRANCH   4  21
BRANCH  19  23
ATOM     23  O   UNL     1       0.441   1.368 -20.411  0.00  0.00    -0.495 OA
ATOM     24  C   UNL     1       1.302   1.141 -19.526  0.00  0.00    +0.276 C 
ENDBRANCH  19  23
BRANCH   1  25
ATOM     25  C   UNL     1      -0.698   1.728 -21.338  0.00  0.00    +0.057 C 
BRANCH  25  26
ATOM     26  C   UNL     1      -1.903   2.059 -21.081  0.00  0.00    +0.004 C 
BRANCH  26  28
ATOM     27  C   UNL     1      -3.348   3.394 -20.140  0.00  0.00    +0.004 C 
ATOM     28  C   UNL     1      -2.182   3.175 -20.576  0.00  0.00    -0.003 C 
ENDBRANCH  26  28
ENDBRANCH  25  26
ENDBRANCH   1  25
TORSDOF 5
ENDMDL
MODEL 9
REMARK VINA RESULT:    -7.362      1.282      4.480
REMARK INTER + INTRA:          -4.160
REMARK INTER:                  -9.514
REMARK INTRA:                   5.355
REMARK UNBOUND:                 5.355
REMARK  Name = ZINC000096316391
REMARK  9 active torsions:
REMARK  status: ('A' for Active; 'I' for Inactive)
REMARK    1  A    between atoms: C_1  and  C_2
REMARK    2  A    between atoms: C_2  and  C_3
REMARK    3  A    between atoms: C_3  and  C_4
REMARK    4  A    between atoms: C_4  and  C_5
REMARK    5  A    between atoms: C_8  and  O_9
REMARK    6  A    between atoms: O_9  and  C_10
REMARK    7  A    between atoms: N_18  and  C_19
REMARK    8  A    between atoms: C_25  and  O_26
REMARK    9  A    between atoms: O_26  and  C_27
REMARK                            x       y       z     vdW  Elec       q    Type
REMARK                         _______ _______ _______ _____ _____    ______ ____
ROOT
ATOM      1  C   UNL     1      -1.561   2.652 -22.439  0.00  0.00    +0.181 C 
ATOM      2  O   UNL     1      -0.071   2.383 -22.400  0.00  0.00    -0.473 OA
ATOM      3  C   UNL     1       0.627   2.677 -23.703  0.00  0.00    +0.168 A 
ATOM      4  C   UNL     1       1.729   2.689 -24.338  0.00  0.00    +0.162 A 
ATOM      5  C   UNL     1       1.750   3.070 -25.548  0.00  0.00    +0.050 A 
ATOM      6  C   UNL     1       0.693   3.433 -26.121  0.00  0.00    +0.008 A 
ATOM      7  C   UNL     1      -0.398   3.420 -25.490  0.00  0.00    -0.034 A 
ATOM      8  C   UNL     1      -1.475   3.789 -26.069  0.00  0.00    +0.094 C 
ATOM      9  C   UNL     1      -2.561   3.776 -25.440  0.00  0.00    +0.096 C 
ATOM     10  C   UNL     1      -2.584   3.396 -24.228  0.00  0.00    -0.007 C 
ATOM     11  C   UNL     1      -3.683   3.384 -23.595  0.00  0.00    +0.009 C 
ATOM     12  C   UNL     1      -3.715   3.008 -22.395  0.00  0.00    +0.045 C 
ATOM     13  N   UNL     1      -3.848   3.800 -24.816  0.00  0.00    +0.239 N 
ATOM     14  H   UNL     1      -4.690   4.101 -25.308  0.00  0.00    +0.204 HD
ATOM     15  C   UNL     1      -4.872   4.173 -25.437  0.00  0.00    +0.191 C 
ATOM     16  C   UNL     1      -3.910   3.382 -23.465  0.00  0.00    +0.133 C 
ATOM     17  C   UNL     1      -2.702   2.977 -22.846  0.00  0.00    +0.071 C 
ATOM     18  C   UNL     1      -0.438   3.044 -24.284  0.00  0.00    +0.016 A 
ATOM     19  C   UNL     1      -2.649   2.640 -21.813  0.00  0.00    +0.142 C 
ATOM     20  C   UNL     1      -1.526   3.033 -23.659  0.00  0.00    +0.077 C 
ENDROOT
BRANCH   4  21
ATOM     21  O   UNL     1       2.789   2.326 -23.769  0.00  0.00    -0.491 OA
ATOM     22  C   UNL     1       3.499   1.425 -24.279  0.00  0.00    +0.277 C 
ENDBRANCH   4  21
BRANCH  19  23
ATOM     23  O   UNL     1      -2.684   2.266 -20.614  0.00  0.00    -0.495 OA
ATOM     24  C   UNL     1      -3.449   2.839 -19.800  0.00  0.00    +0.276 C 
ENDBRANCH  19  23
BRANCH   1  25
ATOM     25  C   UNL     1      -1.313   2.232 -21.252  0.00  0.00    +0.057 C 
BRANCH  25  26
ATOM     26  C   UNL     1      -0.312   1.488 -20.986  0.00  0.00    +0.004 C 
BRANCH  26  28
ATOM     27  C   UNL     1       1.716   1.364 -20.194  0.00  0.00    +0.004 C 
ATOM     28  C   UNL     1       0.540   1.820 -20.124  0.00  0.00    -0.003 C 
ENDBRANCH  26  28
ENDBRANCH  25  26
ENDBRANCH   1  25
TORSDOF 5
ENDMDL
