MODEL 1
REMARK VINA RESULT:   -10.798      0.000      0.000
REMARK INTER + INTRA:         -12.926
REMARK INTER:                 -12.551
REMARK INTRA:                  -0.375
REMARK UNBOUND:                 0.082
REMARK  Name = ZINC000005734226
REMARK  6 active torsions:
REMARK  status: ('A' for Active; 'I' for Inactive)
REMARK    1  A    between atoms: C_1  and  O_2
REMARK    2  A    between atoms: O_2  and  C_3
REMARK    3  A    between atoms: C_3  and  C_5
REMARK    4  A    between atoms: C_15  and  O_16
REMARK    5  A    between atoms: O_16  and  C_17
REMARK    6  A    between atoms: C_27  and  O_28
REMARK                            x       y       z     vdW  Elec       q    Type
REMARK                         _______ _______ _______ _____ _____    ______ ____
ROOT
ATOM      1  C   UNL     1      -3.903   3.381 -22.968  0.00  0.00    +0.130 C 
ATOM      2  C   UNL     1      -2.752   3.298 -23.569  0.00  0.00    +0.019 C 
ATOM      3  C   UNL     1      -1.713   2.857 -22.927  0.00  0.00    +0.066 C 
ATOM      4  C   UNL     1      -0.562   2.774 -23.527  0.00  0.00    +0.113 C 
ATOM      5  C   UNL     1       0.476   2.334 -22.886  0.00  0.00    +0.069 A 
ATOM      6  N   UNL     1       0.633   1.919 -21.663  0.00  0.00    -0.353 N 
ATOM      7  H   UNL     1      -0.069   1.869 -20.975  0.00  0.00    +0.166 HD
ATOM      8  C   UNL     1       1.879   1.580 -21.508  0.00  0.00    +0.051 A 
ATOM      9  C   UNL     1       2.531   1.111 -20.486  0.00  0.00    +0.026 A 
ATOM     10  C   UNL     1       3.800   0.849 -20.595  0.00  0.00    +0.006 A 
ATOM     11  C   UNL     1       4.416   1.054 -21.723  0.00  0.00    +0.046 A 
ATOM     12  C   UNL     1       3.761   1.523 -22.743  0.00  0.00    +0.129 A 
ATOM     13  C   UNL     1       2.493   1.786 -22.637  0.00  0.00    +0.045 A 
ATOM     14  C   UNL     1       1.627   2.252 -23.487  0.00  0.00    -0.005 A 
ATOM     15  C   UNL     1       1.735   2.612 -24.733  0.00  0.00    +0.088 C 
ATOM     16  C   UNL     1       0.696   3.053 -25.373  0.00  0.00    +0.136 C 
ATOM     17  N   UNL     1      -0.454   3.135 -24.773  0.00  0.00    +0.242 N 
ATOM     18  H   UNL     1      -1.222   3.491 -25.343  0.00  0.00    +0.204 HD
ATOM     19  C   UNL     1      -1.494   3.576 -25.415  0.00  0.00    +0.135 C 
ATOM     20  C   UNL     1      -2.644   3.659 -24.814  0.00  0.00    +0.039 C 
ATOM     21  C   UNL     1      -3.683   4.100 -25.455  0.00  0.00    +0.011 C 
ATOM     22  C   UNL     1      -4.834   4.183 -24.856  0.00  0.00    +0.032 C 
ATOM     23  C   UNL     1      -4.941   3.822 -23.611  0.00  0.00    +0.129 C 
ENDROOT
BRANCH   1  24
ATOM     24  C   UNL     1      -4.011   3.021 -21.723  0.00  0.00    +0.313 C 
ATOM     25  O   UNL     1      -4.217   1.774 -21.422  0.00  0.00    -0.250 OA
BRANCH  24  27
ATOM     26  C   UNL     1      -3.040   3.753 -19.828  0.00  0.00    +0.280 C 
ATOM     27  O   UNL     1      -3.911   3.910 -20.780  0.00  0.00    -0.468 OA
ENDBRANCH  24  27
ENDBRANCH   1  24
BRANCH  12  28
ATOM     28  O   UNL     1       4.377   1.729 -23.871  0.00  0.00    -0.494 OA
ATOM     29  C   UNL     1       5.284   2.655 -23.956  0.00  0.00    +0.277 C 
ENDBRANCH  12  28
BRANCH  23  30
ATOM     30  O   UNL     1      -6.092   3.905 -23.009  0.00  0.00    -0.391 OA
ATOM     31  H   UNL     1      -6.521   3.035 -23.011  0.00  0.00    +0.210 HD
ENDBRANCH  23  30
TORSDOF 4
ENDMDL
MODEL 2
REMARK VINA RESULT:   -10.263      1.239      7.580
REMARK INTER + INTRA:         -12.281
REMARK INTER:                 -12.530
REMARK INTRA:                   0.249
REMARK UNBOUND:                 0.082
REMARK  Name = ZINC000005734226
REMARK  6 active torsions:
REMARK  status: ('A' for Active; 'I' for Inactive)
REMARK    1  A    between atoms: C_1  and  O_2
REMARK    2  A    between atoms: O_2  and  C_3
REMARK    3  A    between atoms: C_3  and  C_5
REMARK    4  A    between atoms: C_15  and  O_16
REMARK    5  A    between atoms: O_16  and  C_17
REMARK    6  A    between atoms: C_27  and  O_28
REMARK                            x       y       z     vdW  Elec       q    Type
REMARK                         _______ _______ _______ _____ _____    ______ ____
ROOT
ATOM      1  C   UNL     1       3.630   1.272 -22.816  0.00  0.00    +0.130 C 
ATOM      2  C   UNL     1       2.425   1.469 -22.366  0.00  0.00    +0.019 C 
ATOM      3  C   UNL     1       1.491   1.884 -23.166  0.00  0.00    +0.066 C 
ATOM      4  C   UNL     1       0.285   2.081 -22.717  0.00  0.00    +0.113 C 
ATOM      5  C   UNL     1      -0.648   2.495 -23.516  0.00  0.00    +0.069 A 
ATOM      6  N   UNL     1      -0.643   2.784 -24.785  0.00  0.00    -0.353 N 
ATOM      7  H   UNL     1       0.133   2.729 -25.387  0.00  0.00    +0.166 HD
ATOM      8  C   UNL     1      -1.844   3.158 -25.118  0.00  0.00    +0.051 A 
ATOM      9  C   UNL     1      -2.350   3.543 -26.251  0.00  0.00    +0.026 A 
ATOM     10  C   UNL     1      -3.606   3.871 -26.319  0.00  0.00    +0.006 A 
ATOM     11  C   UNL     1      -4.355   3.814 -25.256  0.00  0.00    +0.046 A 
ATOM     12  C   UNL     1      -3.846   3.429 -24.124  0.00  0.00    +0.129 A 
ATOM     13  C   UNL     1      -2.590   3.101 -24.054  0.00  0.00    +0.045 A 
ATOM     14  C   UNL     1      -1.852   2.691 -23.065  0.00  0.00    -0.005 A 
ATOM     15  C   UNL     1      -2.119   2.471 -21.811  0.00  0.00    +0.088 C 
ATOM     16  C   UNL     1      -1.184   2.056 -21.012  0.00  0.00    +0.136 C 
ATOM     17  N   UNL     1       0.019   1.860 -21.462  0.00  0.00    +0.242 N 
ATOM     18  H   UNL     1       0.697   1.534 -20.773  0.00  0.00    +0.204 HD
ATOM     19  C   UNL     1       0.954   1.445 -20.662  0.00  0.00    +0.135 C 
ATOM     20  C   UNL     1       2.158   1.249 -21.112  0.00  0.00    +0.039 C 
ATOM     21  C   UNL     1       3.092   0.834 -20.312  0.00  0.00    +0.011 C 
ATOM     22  C   UNL     1       4.297   0.637 -20.761  0.00  0.00    +0.032 C 
ATOM     23  C   UNL     1       4.563   0.858 -22.015  0.00  0.00    +0.129 C 
ENDROOT
BRANCH   1  24
ATOM     24  C   UNL     1       3.896   1.493 -24.070  0.00  0.00    +0.313 C 
ATOM     25  O   UNL     1       3.463   0.674 -24.981  0.00  0.00    -0.250 OA
BRANCH  24  27
ATOM     26  C   UNL     1       4.570   3.604 -23.671  0.00  0.00    +0.280 C 
ATOM     27  O   UNL     1       4.596   2.535 -24.410  0.00  0.00    -0.468 OA
ENDBRANCH  24  27
ENDBRANCH   1  24
BRANCH  12  28
ATOM     28  O   UNL     1      -4.594   3.372 -23.062  0.00  0.00    -0.494 OA
ATOM     29  C   UNL     1      -5.847   3.713 -23.129  0.00  0.00    +0.277 C 
ENDBRANCH  12  28
BRANCH  23  30
ATOM     30  O   UNL     1       5.768   0.661 -22.466  0.00  0.00    -0.391 OA
ATOM     31  H   UNL     1       6.408   1.077 -21.869  0.00  0.00    +0.210 HD
ENDBRANCH  23  30
TORSDOF 4
ENDMDL
MODEL 3
REMARK VINA RESULT:    -8.994      1.586      6.821
REMARK INTER + INTRA:         -10.752
REMARK INTER:                 -11.325
REMARK INTRA:                   0.573
REMARK UNBOUND:                 0.082
REMARK  Name = ZINC000005734226
REMARK  6 active torsions:
REMARK  status: ('A' for Active; 'I' for Inactive)
REMARK    1  A    between atoms: C_1  and  O_2
REMARK    2  A    between atoms: O_2  and  C_3
REMARK    3  A    between atoms: C_3  and  C_5
REMARK    4  A    between atoms: C_15  and  O_16
REMARK    5  A    between atoms: O_16  and  C_17
REMARK    6  A    between atoms: C_27  and  O_28
REMARK                            x       y       z     vdW  Elec       q    Type
REMARK                         _______ _______ _______ _____ _____    ______ ____
ROOT
ATOM      1  C   UNL     1       3.454   1.779 -22.143  0.00  0.00    +0.130 C 
ATOM      2  C   UNL     1       2.547   2.346 -22.884  0.00  0.00    +0.019 C 
ATOM      3  C   UNL     1       1.300   2.319 -22.521  0.00  0.00    +0.066 C 
ATOM      4  C   UNL     1       0.393   2.887 -23.262  0.00  0.00    +0.113 C 
ATOM      5  C   UNL     1      -0.853   2.860 -22.900  0.00  0.00    +0.069 A 
ATOM      6  N   UNL     1      -1.448   2.343 -21.865  0.00  0.00    -0.353 N 
ATOM      7  H   UNL     1      -1.012   1.851 -21.133  0.00  0.00    +0.166 HD
ATOM      8  C   UNL     1      -2.720   2.591 -21.966  0.00  0.00    +0.051 A 
ATOM      9  C   UNL     1      -3.727   2.293 -21.200  0.00  0.00    +0.026 A 
ATOM     10  C   UNL     1      -4.926   2.666 -21.535  0.00  0.00    +0.006 A 
ATOM     11  C   UNL     1      -5.120   3.337 -22.633  0.00  0.00    +0.046 A 
ATOM     12  C   UNL     1      -4.112   3.634 -23.397  0.00  0.00    +0.129 A 
ATOM     13  C   UNL     1      -2.911   3.262 -23.065  0.00  0.00    +0.045 A 
ATOM     14  C   UNL     1      -1.758   3.427 -23.641  0.00  0.00    -0.005 A 
ATOM     15  C   UNL     1      -1.413   4.022 -24.746  0.00  0.00    +0.088 C 
ATOM     16  C   UNL     1      -0.167   4.048 -25.107  0.00  0.00    +0.136 C 
ATOM     17  N   UNL     1       0.738   3.481 -24.367  0.00  0.00    +0.242 N 
ATOM     18  H   UNL     1       1.694   3.545 -24.718  0.00  0.00    +0.204 HD
ATOM     19  C   UNL     1       1.986   3.508 -24.729  0.00  0.00    +0.135 C 
ATOM     20  C   UNL     1       2.892   2.941 -23.989  0.00  0.00    +0.039 C 
ATOM     21  C   UNL     1       4.138   2.967 -24.350  0.00  0.00    +0.011 C 
ATOM     22  C   UNL     1       5.045   2.401 -23.610  0.00  0.00    +0.032 C 
ATOM     23  C   UNL     1       4.699   1.807 -22.506  0.00  0.00    +0.129 C 
ENDROOT
BRANCH   1  24
ATOM     24  C   UNL     1       3.108   1.185 -21.039  0.00  0.00    +0.313 C 
ATOM     25  O   UNL     1       3.422  -0.061 -20.844  0.00  0.00    -0.250 OA
BRANCH  24  27
ATOM     26  C   UNL     1       1.321   1.372 -19.681  0.00  0.00    +0.280 C 
ATOM     27  O   UNL     1       2.448   1.840 -20.130  0.00  0.00    -0.468 OA
ENDBRANCH  24  27
ENDBRANCH   1  24
BRANCH  12  28
ATOM     28  O   UNL     1      -4.305   4.304 -24.496  0.00  0.00    -0.494 OA
ATOM     29  C   UNL     1      -4.955   3.762 -25.482  0.00  0.00    +0.277 C 
ENDBRANCH  12  28
BRANCH  23  30
ATOM     30  O   UNL     1       5.606   1.239 -21.765  0.00  0.00    -0.391 OA
ATOM     31  H   UNL     1       5.313   1.237 -20.840  0.00  0.00    +0.210 HD
ENDBRANCH  23  30
TORSDOF 4
ENDMDL
MODEL 4
REMARK VINA RESULT:    -8.590      5.318      8.312
REMARK INTER + INTRA:         -10.266
REMARK INTER:                 -10.087
REMARK INTRA:                  -0.179
REMARK UNBOUND:                 0.082
REMARK  Name = ZINC000005734226
REMARK  6 active torsions:
REMARK  status: ('A' for Active; 'I' for Inactive)
REMARK    1  A    between atoms: C_1  and  O_2
REMARK    2  A    between atoms: O_2  and  C_3
REMARK    3  A    between atoms: C_3  and  C_5
REMARK    4  A    between atoms: C_15  and  O_16
REMARK    5  A    between atoms: O_16  and  C_17
REMARK    6  A    between atoms: C_27  and  O_28
REMARK                            x       y       z     vdW  Elec       q    Type
REMARK                         _______ _______ _______ _____ _____    ______ ____
ROOT
ATOM      1  C   UNL     1       5.392   9.004 -21.413  0.00  0.00    +0.130 C 
ATOM      2  C   UNL     1       5.353   7.764 -21.806  0.00  0.00    +0.019 C 
ATOM      3  C   UNL     1       4.224   7.231 -22.165  0.00  0.00    +0.066 C 
ATOM      4  C   UNL     1       4.184   5.991 -22.559  0.00  0.00    +0.113 C 
ATOM      5  C   UNL     1       3.057   5.458 -22.917  0.00  0.00    +0.069 A 
ATOM      6  N   UNL     1       1.848   5.934 -22.974  0.00  0.00    -0.353 N 
ATOM      7  H   UNL     1       1.575   6.849 -22.735  0.00  0.00    +0.166 HD
ATOM      8  C   UNL     1       1.063   4.990 -23.402  0.00  0.00    +0.051 A 
ATOM      9  C   UNL     1      -0.217   4.961 -23.629  0.00  0.00    +0.026 A 
ATOM     10  C   UNL     1      -0.771   3.868 -24.065  0.00  0.00    +0.006 A 
ATOM     11  C   UNL     1      -0.048   2.806 -24.273  0.00  0.00    +0.046 A 
ATOM     12  C   UNL     1       1.232   2.838 -24.045  0.00  0.00    +0.129 A 
ATOM     13  C   UNL     1       1.788   3.929 -23.610  0.00  0.00    +0.045 A 
ATOM     14  C   UNL     1       3.019   4.219 -23.310  0.00  0.00    -0.005 A 
ATOM     15  C   UNL     1       4.113   3.515 -23.344  0.00  0.00    +0.088 C 
ATOM     16  C   UNL     1       5.239   4.049 -22.985  0.00  0.00    +0.136 C 
ATOM     17  N   UNL     1       5.278   5.288 -22.592  0.00  0.00    +0.242 N 
ATOM     18  H   UNL     1       6.201   5.634 -22.327  0.00  0.00    +0.204 HD
ATOM     19  C   UNL     1       6.407   5.822 -22.233  0.00  0.00    +0.135 C 
ATOM     20  C   UNL     1       6.446   7.060 -21.840  0.00  0.00    +0.039 C 
ATOM     21  C   UNL     1       7.573   7.594 -21.481  0.00  0.00    +0.011 C 
ATOM     22  C   UNL     1       7.614   8.833 -21.088  0.00  0.00    +0.032 C 
ATOM     23  C   UNL     1       6.520   9.536 -21.055  0.00  0.00    +0.129 C 
ENDROOT
BRANCH   1  24
ATOM     24  C   UNL     1       4.298   9.707 -21.380  0.00  0.00    +0.313 C 
ATOM     25  O   UNL     1       3.755  10.012 -20.239  0.00  0.00    -0.250 OA
BRANCH  24  27
ATOM     26  C   UNL     1       3.391  11.346 -22.629  0.00  0.00    +0.280 C 
ATOM     27  O   UNL     1       3.749  10.104 -22.489  0.00  0.00    -0.468 OA
ENDBRANCH  24  27
ENDBRANCH   1  24
BRANCH  12  28
ATOM     28  O   UNL     1       1.955   1.777 -24.253  0.00  0.00    -0.494 OA
ATOM     29  C   UNL     1       2.322   1.467 -25.461  0.00  0.00    +0.277 C 
ENDBRANCH  12  28
BRANCH  23  30
ATOM     30  O   UNL     1       6.558  10.776 -20.661  0.00  0.00    -0.391 OA
ATOM     31  H   UNL     1       6.243  11.352 -21.374  0.00  0.00    +0.210 HD
ENDBRANCH  23  30
TORSDOF 4
ENDMDL
MODEL 5
REMARK VINA RESULT:    -8.421      5.360      7.437
REMARK INTER + INTRA:         -10.063
REMARK INTER:                  -9.615
REMARK INTRA:                  -0.447
REMARK UNBOUND:                 0.082
REMARK  Name = ZINC000005734226
REMARK  6 active torsions:
REMARK  status: ('A' for Active; 'I' for Inactive)
REMARK    1  A    between atoms: C_1  and  O_2
REMARK    2  A    between atoms: O_2  and  C_3
REMARK    3  A    between atoms: C_3  and  C_5
REMARK    4  A    between atoms: C_15  and  O_16
REMARK    5  A    between atoms: O_16  and  C_17
REMARK    6  A    between atoms: C_27  and  O_28
REMARK                            x       y       z     vdW  Elec       q    Type
REMARK                         _______ _______ _______ _____ _____    ______ ____
ROOT
ATOM      1  C   UNL     1       2.078   3.591 -23.679  0.00  0.00    +0.130 C 
ATOM      2  C   UNL     1       3.189   4.079 -23.212  0.00  0.00    +0.019 C 
ATOM      3  C   UNL     1       3.299   5.355 -22.995  0.00  0.00    +0.066 C 
ATOM      4  C   UNL     1       4.411   5.844 -22.527  0.00  0.00    +0.113 C 
ATOM      5  C   UNL     1       4.522   7.118 -22.310  0.00  0.00    +0.069 A 
ATOM      6  N   UNL     1       3.689   8.104 -22.473  0.00  0.00    -0.353 N 
ATOM      7  H   UNL     1       2.769   8.034 -22.814  0.00  0.00    +0.166 HD
ATOM      8  C   UNL     1       4.286   9.200 -22.106  0.00  0.00    +0.051 A 
ATOM      9  C   UNL     1       3.888  10.437 -22.077  0.00  0.00    +0.026 A 
ATOM     10  C   UNL     1       4.696  11.365 -21.658  0.00  0.00    +0.006 A 
ATOM     11  C   UNL     1       5.899  11.058 -21.268  0.00  0.00    +0.046 A 
ATOM     12  C   UNL     1       6.294   9.820 -21.298  0.00  0.00    +0.129 A 
ATOM     13  C   UNL     1       5.488   8.890 -21.717  0.00  0.00    +0.045 A 
ATOM     14  C   UNL     1       5.634   7.605 -21.843  0.00  0.00    -0.005 A 
ATOM     15  C   UNL     1       6.635   6.812 -21.593  0.00  0.00    +0.088 C 
ATOM     16  C   UNL     1       6.523   5.538 -21.810  0.00  0.00    +0.136 C 
ATOM     17  N   UNL     1       5.412   5.050 -22.278  0.00  0.00    +0.242 N 
ATOM     18  H   UNL     1       5.403   4.040 -22.421  0.00  0.00    +0.204 HD
ATOM     19  C   UNL     1       5.301   3.774 -22.495  0.00  0.00    +0.135 C 
ATOM     20  C   UNL     1       4.190   3.287 -22.962  0.00  0.00    +0.039 C 
ATOM     21  C   UNL     1       4.079   2.012 -23.179  0.00  0.00    +0.011 C 
ATOM     22  C   UNL     1       2.968   1.523 -23.646  0.00  0.00    +0.032 C 
ATOM     23  C   UNL     1       1.968   2.316 -23.896  0.00  0.00    +0.129 C 
ENDROOT
BRANCH   1  24
ATOM     24  C   UNL     1       1.077   4.384 -23.929  0.00  0.00    +0.313 C 
ATOM     25  O   UNL     1       0.877   4.820 -25.136  0.00  0.00    -0.250 OA
BRANCH  24  27
ATOM     26  C   UNL     1      -1.007   4.772 -23.169  0.00  0.00    +0.280 C 
ATOM     27  O   UNL     1       0.277   4.740 -22.967  0.00  0.00    -0.468 OA
ENDBRANCH  24  27
ENDBRANCH   1  24
BRANCH  12  28
ATOM     28  O   UNL     1       7.497   9.512 -20.908  0.00  0.00    -0.494 OA
ATOM     29  C   UNL     1       8.525   9.922 -21.589  0.00  0.00    +0.277 C 
ENDBRANCH  12  28
BRANCH  23  30
ATOM     30  O   UNL     1       0.856   1.829 -24.363  0.00  0.00    -0.391 OA
ATOM     31  H   UNL     1       0.253   1.635 -23.629  0.00  0.00    +0.210 HD
ENDBRANCH  23  30
TORSDOF 4
ENDMDL
