MODEL 1
REMARK VINA RESULT:    -7.016      0.000      0.000
REMARK INTER + INTRA:          -7.016
REMARK INTER:                  -7.016
REMARK INTRA:                   0.000
REMARK UNBOUND:                 0.000
REMARK  Name = ZINC000000074709
REMARK  0 active torsions:
REMARK  status: ('A' for Active; 'I' for Inactive)
REMARK                            x       y       z     vdW  Elec       q    Type
REMARK                         _______ _______ _______ _____ _____    ______ ____
ROOT
ATOM      1  O   UNL     1       0.250   2.235 -23.792  0.00  0.00    -0.245 OA
ATOM      2  C   UNL     1      -0.903   2.388 -23.212  0.00  0.00    +0.337 A 
ATOM      3  C   UNL     1      -1.065   2.014 -21.978  0.00  0.00    +0.092 A 
ATOM      4  C   UNL     1      -2.217   2.167 -21.398  0.00  0.00    +0.018 A 
ATOM      5  C   UNL     1      -3.210   2.695 -22.052  0.00  0.00    +0.018 A 
ATOM      6  C   UNL     1      -4.363   2.848 -21.472  0.00  0.00    +0.011 A 
ATOM      7  C   UNL     1      -5.354   3.376 -22.127  0.00  0.00    +0.001 A 
ATOM      8  C   UNL     1      -5.193   3.750 -23.361  0.00  0.00    +0.004 A 
ATOM      9  C   UNL     1      -4.040   3.597 -23.941  0.00  0.00    +0.047 A 
ATOM     10  C   UNL     1      -3.048   3.069 -23.287  0.00  0.00    +0.139 A 
ATOM     11  O   UNL     1      -1.895   2.916 -23.867  0.00  0.00    -0.422 OA
ENDROOT
TORSDOF 0
ENDMDL
MODEL 2
REMARK VINA RESULT:    -6.821      1.388      3.160
REMARK INTER + INTRA:          -6.821
REMARK INTER:                  -6.821
REMARK INTRA:                   0.000
REMARK UNBOUND:                 0.000
REMARK  Name = ZINC000000074709
REMARK  0 active torsions:
REMARK  status: ('A' for Active; 'I' for Inactive)
REMARK                            x       y       z     vdW  Elec       q    Type
REMARK                         _______ _______ _______ _____ _____    ______ ____
ROOT
ATOM      1  O   UNL     1      -3.307   3.404 -26.789  0.00  0.00    -0.245 OA
ATOM      2  C   UNL     1      -3.644   3.419 -25.534  0.00  0.00    +0.337 A 
ATOM      3  C   UNL     1      -4.832   3.813 -25.185  0.00  0.00    +0.092 A 
ATOM      4  C   UNL     1      -5.169   3.827 -23.929  0.00  0.00    +0.018 A 
ATOM      5  C   UNL     1      -4.318   3.447 -23.023  0.00  0.00    +0.018 A 
ATOM      6  C   UNL     1      -4.655   3.462 -21.768  0.00  0.00    +0.011 A 
ATOM      7  C   UNL     1      -3.803   3.081 -20.862  0.00  0.00    +0.001 A 
ATOM      8  C   UNL     1      -2.615   2.687 -21.211  0.00  0.00    +0.004 A 
ATOM      9  C   UNL     1      -2.278   2.672 -22.467  0.00  0.00    +0.047 A 
ATOM     10  C   UNL     1      -3.129   3.053 -23.372  0.00  0.00    +0.139 A 
ATOM     11  O   UNL     1      -2.792   3.038 -24.628  0.00  0.00    -0.422 OA
ENDROOT
TORSDOF 0
ENDMDL
MODEL 3
REMARK VINA RESULT:    -6.777      1.036      2.195
REMARK INTER + INTRA:          -6.777
REMARK INTER:                  -6.777
REMARK INTRA:                   0.000
REMARK UNBOUND:                 0.000
REMARK  Name = ZINC000000074709
REMARK  0 active torsions:
REMARK  status: ('A' for Active; 'I' for Inactive)
REMARK                            x       y       z     vdW  Elec       q    Type
REMARK                         _______ _______ _______ _____ _____    ______ ____
ROOT
ATOM      1  O   UNL     1       0.031   2.989 -24.370  0.00  0.00    -0.245 OA
ATOM      2  C   UNL     1      -1.235   3.178 -24.146  0.00  0.00    +0.337 A 
ATOM      3  C   UNL     1      -1.980   3.735 -25.054  0.00  0.00    +0.092 A 
ATOM      4  C   UNL     1      -3.246   3.925 -24.830  0.00  0.00    +0.018 A 
ATOM      5  C   UNL     1      -3.768   3.557 -23.697  0.00  0.00    +0.018 A 
ATOM      6  C   UNL     1      -5.034   3.746 -23.473  0.00  0.00    +0.011 A 
ATOM      7  C   UNL     1      -5.555   3.378 -22.340  0.00  0.00    +0.001 A 
ATOM      8  C   UNL     1      -4.811   2.821 -21.432  0.00  0.00    +0.004 A 
ATOM      9  C   UNL     1      -3.545   2.631 -21.656  0.00  0.00    +0.047 A 
ATOM     10  C   UNL     1      -3.023   2.999 -22.789  0.00  0.00    +0.139 A 
ATOM     11  O   UNL     1      -1.756   2.810 -23.013  0.00  0.00    -0.422 OA
ENDROOT
TORSDOF 0
ENDMDL
MODEL 4
REMARK VINA RESULT:    -6.619      1.896      3.319
REMARK INTER + INTRA:          -6.619
REMARK INTER:                  -6.619
REMARK INTRA:                   0.000
REMARK UNBOUND:                 0.000
REMARK  Name = ZINC000000074709
REMARK  0 active torsions:
REMARK  status: ('A' for Active; 'I' for Inactive)
REMARK                            x       y       z     vdW  Elec       q    Type
REMARK                         _______ _______ _______ _____ _____    ______ ____
ROOT
ATOM      1  O   UNL     1      -3.043   3.672 -19.951  0.00  0.00    -0.245 OA
ATOM      2  C   UNL     1      -3.479   3.667 -21.175  0.00  0.00    +0.337 A 
ATOM      3  C   UNL     1      -4.755   3.585 -21.410  0.00  0.00    +0.092 A 
ATOM      4  C   UNL     1      -5.191   3.581 -22.634  0.00  0.00    +0.018 A 
ATOM      5  C   UNL     1      -4.351   3.659 -23.624  0.00  0.00    +0.018 A 
ATOM      6  C   UNL     1      -4.787   3.655 -24.849  0.00  0.00    +0.011 A 
ATOM      7  C   UNL     1      -3.948   3.733 -25.838  0.00  0.00    +0.001 A 
ATOM      8  C   UNL     1      -2.672   3.815 -25.602  0.00  0.00    +0.004 A 
ATOM      9  C   UNL     1      -2.236   3.819 -24.378  0.00  0.00    +0.047 A 
ATOM     10  C   UNL     1      -3.075   3.741 -23.389  0.00  0.00    +0.139 A 
ATOM     11  O   UNL     1      -2.639   3.745 -22.164  0.00  0.00    -0.422 OA
ENDROOT
TORSDOF 0
ENDMDL
MODEL 5
REMARK VINA RESULT:    -6.447      1.457      3.630
REMARK INTER + INTRA:          -6.447
REMARK INTER:                  -6.447
REMARK INTRA:                   0.000
REMARK UNBOUND:                 0.000
REMARK  Name = ZINC000000074709
REMARK  0 active torsions:
REMARK  status: ('A' for Active; 'I' for Inactive)
REMARK                            x       y       z     vdW  Elec       q    Type
REMARK                         _______ _______ _______ _____ _____    ______ ____
ROOT
ATOM      1  O   UNL     1      -5.663   3.831 -23.571  0.00  0.00    -0.245 OA
ATOM      2  C   UNL     1      -4.590   3.420 -22.965  0.00  0.00    +0.337 A 
ATOM      3  C   UNL     1      -4.615   3.184 -21.687  0.00  0.00    +0.092 A 
ATOM      4  C   UNL     1      -3.541   2.774 -21.080  0.00  0.00    +0.018 A 
ATOM      5  C   UNL     1      -2.442   2.598 -21.752  0.00  0.00    +0.018 A 
ATOM      6  C   UNL     1      -1.368   2.187 -21.146  0.00  0.00    +0.011 A 
ATOM      7  C   UNL     1      -0.269   2.012 -21.818  0.00  0.00    +0.001 A 
ATOM      8  C   UNL     1      -0.244   2.248 -23.096  0.00  0.00    +0.004 A 
ATOM      9  C   UNL     1      -1.318   2.659 -23.702  0.00  0.00    +0.047 A 
ATOM     10  C   UNL     1      -2.416   2.834 -23.031  0.00  0.00    +0.139 A 
ATOM     11  O   UNL     1      -3.491   3.245 -23.637  0.00  0.00    -0.422 OA
ENDROOT
TORSDOF 0
ENDMDL
MODEL 6
REMARK VINA RESULT:    -6.446      2.012      4.200
REMARK INTER + INTRA:          -6.446
REMARK INTER:                  -6.446
REMARK INTRA:                   0.000
REMARK UNBOUND:                 0.000
REMARK  Name = ZINC000000074709
REMARK  0 active torsions:
REMARK  status: ('A' for Active; 'I' for Inactive)
REMARK                            x       y       z     vdW  Elec       q    Type
REMARK                         _______ _______ _______ _____ _____    ______ ____
ROOT
ATOM      1  O   UNL     1      -6.233   3.240 -21.817  0.00  0.00    -0.245 OA
ATOM      2  C   UNL     1      -5.187   3.453 -22.558  0.00  0.00    +0.337 A 
ATOM      3  C   UNL     1      -5.329   3.857 -23.785  0.00  0.00    +0.092 A 
ATOM      4  C   UNL     1      -4.283   4.070 -24.525  0.00  0.00    +0.018 A 
ATOM      5  C   UNL     1      -3.092   3.878 -24.038  0.00  0.00    +0.018 A 
ATOM      6  C   UNL     1      -2.045   4.090 -24.779  0.00  0.00    +0.011 A 
ATOM      7  C   UNL     1      -0.855   3.898 -24.292  0.00  0.00    +0.001 A 
ATOM      8  C   UNL     1      -0.712   3.494 -23.065  0.00  0.00    +0.004 A 
ATOM      9  C   UNL     1      -1.759   3.282 -22.324  0.00  0.00    +0.047 A 
ATOM     10  C   UNL     1      -2.949   3.473 -22.811  0.00  0.00    +0.139 A 
ATOM     11  O   UNL     1      -3.997   3.261 -22.071  0.00  0.00    -0.422 OA
ENDROOT
TORSDOF 0
ENDMDL
MODEL 7
REMARK VINA RESULT:    -6.086      2.287      3.596
REMARK INTER + INTRA:          -6.086
REMARK INTER:                  -6.086
REMARK INTRA:                   0.000
REMARK UNBOUND:                 0.000
REMARK  Name = ZINC000000074709
REMARK  0 active torsions:
REMARK  status: ('A' for Active; 'I' for Inactive)
REMARK                            x       y       z     vdW  Elec       q    Type
REMARK                         _______ _______ _______ _____ _____    ______ ____
ROOT
ATOM      1  O   UNL     1       2.394   1.385 -24.979  0.00  0.00    -0.245 OA
ATOM      2  C   UNL     1       1.558   2.237 -24.466  0.00  0.00    +0.337 A 
ATOM      3  C   UNL     1       1.599   3.486 -24.827  0.00  0.00    +0.092 A 
ATOM      4  C   UNL     1       0.762   4.338 -24.314  0.00  0.00    +0.018 A 
ATOM      5  C   UNL     1      -0.116   3.942 -23.440  0.00  0.00    +0.018 A 
ATOM      6  C   UNL     1      -0.952   4.795 -22.928  0.00  0.00    +0.011 A 
ATOM      7  C   UNL     1      -1.830   4.399 -22.054  0.00  0.00    +0.001 A 
ATOM      8  C   UNL     1      -1.870   3.150 -21.693  0.00  0.00    +0.004 A 
ATOM      9  C   UNL     1      -1.034   2.298 -22.206  0.00  0.00    +0.047 A 
ATOM     10  C   UNL     1      -0.157   2.694 -23.079  0.00  0.00    +0.139 A 
ATOM     11  O   UNL     1       0.681   1.842 -23.593  0.00  0.00    -0.422 OA
ENDROOT
TORSDOF 0
ENDMDL
MODEL 8
REMARK VINA RESULT:    -6.026      2.447      4.363
REMARK INTER + INTRA:          -6.026
REMARK INTER:                  -6.026
REMARK INTRA:                   0.000
REMARK UNBOUND:                 0.000
REMARK  Name = ZINC000000074709
REMARK  0 active torsions:
REMARK  status: ('A' for Active; 'I' for Inactive)
REMARK                            x       y       z     vdW  Elec       q    Type
REMARK                         _______ _______ _______ _____ _____    ______ ____
ROOT
ATOM      1  O   UNL     1      -4.066   2.929 -26.344  0.00  0.00    -0.245 OA
ATOM      2  C   UNL     1      -3.152   3.371 -25.533  0.00  0.00    +0.337 A 
ATOM      3  C   UNL     1      -3.483   3.793 -24.349  0.00  0.00    +0.092 A 
ATOM      4  C   UNL     1      -2.569   4.234 -23.537  0.00  0.00    +0.018 A 
ATOM      5  C   UNL     1      -1.323   4.255 -23.910  0.00  0.00    +0.018 A 
ATOM      6  C   UNL     1      -0.409   4.697 -23.099  0.00  0.00    +0.011 A 
ATOM      7  C   UNL     1       0.836   4.717 -23.473  0.00  0.00    +0.001 A 
ATOM      8  C   UNL     1       1.167   4.296 -24.657  0.00  0.00    +0.004 A 
ATOM      9  C   UNL     1       0.253   3.854 -25.468  0.00  0.00    +0.047 A 
ATOM     10  C   UNL     1      -0.992   3.834 -25.095  0.00  0.00    +0.139 A 
ATOM     11  O   UNL     1      -1.907   3.392 -25.906  0.00  0.00    -0.422 OA
ENDROOT
TORSDOF 0
ENDMDL
MODEL 9
REMARK VINA RESULT:    -5.859      1.337      2.166
REMARK INTER + INTRA:          -5.859
REMARK INTER:                  -5.859
REMARK INTRA:                   0.000
REMARK UNBOUND:                 0.000
REMARK  Name = ZINC000000074709
REMARK  0 active torsions:
REMARK  status: ('A' for Active; 'I' for Inactive)
REMARK                            x       y       z     vdW  Elec       q    Type
REMARK                         _______ _______ _______ _____ _____    ______ ____
ROOT
ATOM      1  O   UNL     1       2.484   2.250 -23.197  0.00  0.00    -0.245 OA
ATOM      2  C   UNL     1       1.254   2.244 -22.777  0.00  0.00    +0.337 A 
ATOM      3  C   UNL     1       0.915   1.500 -21.766  0.00  0.00    +0.092 A 
ATOM      4  C   UNL     1      -0.315   1.495 -21.346  0.00  0.00    +0.018 A 
ATOM      5  C   UNL     1      -1.207   2.234 -21.937  0.00  0.00    +0.018 A 
ATOM      6  C   UNL     1      -2.437   2.228 -21.517  0.00  0.00    +0.011 A 
ATOM      7  C   UNL     1      -3.328   2.967 -22.108  0.00  0.00    +0.001 A 
ATOM      8  C   UNL     1      -2.990   3.711 -23.119  0.00  0.00    +0.004 A 
ATOM      9  C   UNL     1      -1.760   3.717 -23.539  0.00  0.00    +0.047 A 
ATOM     10  C   UNL     1      -0.868   2.978 -22.948  0.00  0.00    +0.139 A 
ATOM     11  O   UNL     1       0.362   2.983 -23.368  0.00  0.00    -0.422 OA
ENDROOT
TORSDOF 0
ENDMDL
