MODEL 1
REMARK VINA RESULT:    -9.384      0.000      0.000
REMARK INTER + INTRA:         -12.403
REMARK INTER:                 -12.170
REMARK INTRA:                  -0.233
REMARK UNBOUND:                -0.276
REMARK  Name = ZINC000000338220
REMARK  8 active torsions:
REMARK  status: ('A' for Active; 'I' for Inactive)
REMARK    1  A    between atoms: C_1  and  O_2
REMARK    2  A    between atoms: O_2  and  C_3
REMARK    3  A    between atoms: C_4  and  C_5
REMARK    4  A    between atoms: C_9  and  O_10
REMARK    5  A    between atoms: O_10  and  C_11
REMARK    6  A    between atoms: C_11  and  C_12
REMARK    7  A    between atoms: C_19  and  O_20
REMARK    8  A    between atoms: O_20  and  C_21
REMARK                            x       y       z     vdW  Elec       q    Type
REMARK                         _______ _______ _______ _____ _____    ______ ____
ROOT
ATOM      1  C   UNL     1       4.441   1.756 -22.278  0.00  0.00    +0.205 A 
ATOM      2  C   UNL     1       4.040   0.950 -21.340  0.00  0.00    +0.148 A 
ATOM      3  O   UNL     1       2.769   0.808 -21.105  0.00  0.00    -0.456 OA
ATOM      4  C   UNL     1       1.900   1.471 -21.807  0.00  0.00    +0.146 A 
ATOM      5  C   UNL     1       0.630   1.328 -21.572  0.00  0.00    +0.092 A 
ATOM      6  C   UNL     1      -0.241   1.991 -22.274  0.00  0.00    +0.128 A 
ATOM      7  C   UNL     1       0.160   2.797 -23.213  0.00  0.00    +0.092 A 
ATOM      8  C   UNL     1       1.431   2.939 -23.449  0.00  0.00    +0.138 A 
ATOM      9  C   UNL     1       2.301   2.276 -22.746  0.00  0.00    +0.109 A 
ATOM     10  C   UNL     1       4.910   0.287 -20.637  0.00  0.00    +0.090 C 
ATOM     11  C   UNL     1       3.571   2.419 -22.981  0.00  0.00    +0.238 A 
ATOM     12  O   UNL     1       3.972   3.225 -23.919  0.00  0.00    -0.283 OA
ENDROOT
BRANCH   1  14
ATOM     13  C   UNL     1       6.332   2.964 -22.103  0.00  0.00    +0.277 C 
ATOM     14  O   UNL     1       5.711   1.898 -22.513  0.00  0.00    -0.489 OA
ENDBRANCH   1  14
BRANCH   8  15
ATOM     15  O   UNL     1       1.832   3.745 -24.387  0.00  0.00    -0.494 OA
ATOM     16  C   UNL     1       1.037   4.044 -25.370  0.00  0.00    +0.277 C 
ENDBRANCH   8  15
BRANCH   6  17
ATOM     17  O   UNL     1      -1.511   1.848 -22.039  0.00  0.00    -0.487 OA
BRANCH  17  18
ATOM     18  C   UNL     1      -2.211   2.858 -21.616  0.00  0.00    +0.264 C 
BRANCH  18  19
ATOM     19  C   UNL     1      -3.356   3.132 -22.168  0.00  0.00    -0.010 A 
ATOM     20  C   UNL     1      -4.456   2.972 -21.495  0.00  0.00    +0.007 A 
ATOM     21  C   UNL     1      -5.602   3.246 -22.047  0.00  0.00    +0.000 A 
ATOM     22  C   UNL     1      -5.646   3.680 -23.271  0.00  0.00    +0.000 A 
ATOM     23  C   UNL     1      -4.545   3.840 -23.945  0.00  0.00    +0.000 A 
ATOM     24  C   UNL     1      -3.400   3.566 -23.393  0.00  0.00    +0.007 A 
ENDBRANCH  18  19
ENDBRANCH  17  18
ENDBRANCH   6  17
TORSDOF 5
ENDMDL
MODEL 2
REMARK VINA RESULT:    -8.776      2.282      7.291
REMARK INTER + INTRA:         -11.617
REMARK INTER:                 -11.342
REMARK INTRA:                  -0.275
REMARK UNBOUND:                -0.276
REMARK  Name = ZINC000000338220
REMARK  8 active torsions:
REMARK  status: ('A' for Active; 'I' for Inactive)
REMARK    1  A    between atoms: C_1  and  O_2
REMARK    2  A    between atoms: O_2  and  C_3
REMARK    3  A    between atoms: C_4  and  C_5
REMARK    4  A    between atoms: C_9  and  O_10
REMARK    5  A    between atoms: O_10  and  C_11
REMARK    6  A    between atoms: C_11  and  C_12
REMARK    7  A    between atoms: C_19  and  O_20
REMARK    8  A    between atoms: O_20  and  C_21
REMARK                            x       y       z     vdW  Elec       q    Type
REMARK                         _______ _______ _______ _____ _____    ______ ____
ROOT
ATOM      1  C   UNL     1      -4.009   3.694 -22.116  0.00  0.00    +0.205 A 
ATOM      2  C   UNL     1      -3.014   3.673 -21.279  0.00  0.00    +0.148 A 
ATOM      3  O   UNL     1      -1.792   3.662 -21.722  0.00  0.00    -0.456 OA
ATOM      4  C   UNL     1      -1.564   3.673 -23.002  0.00  0.00    +0.146 A 
ATOM      5  C   UNL     1      -0.343   3.663 -23.445  0.00  0.00    +0.092 A 
ATOM      6  C   UNL     1      -0.114   3.674 -24.724  0.00  0.00    +0.128 A 
ATOM      7  C   UNL     1      -1.109   3.696 -25.562  0.00  0.00    +0.092 A 
ATOM      8  C   UNL     1      -2.332   3.706 -25.119  0.00  0.00    +0.138 A 
ATOM      9  C   UNL     1      -2.559   3.695 -23.839  0.00  0.00    +0.109 A 
ATOM     10  C   UNL     1      -3.242   3.661 -19.999  0.00  0.00    +0.090 C 
ATOM     11  C   UNL     1      -3.781   3.705 -23.396  0.00  0.00    +0.238 A 
ATOM     12  O   UNL     1      -4.775   3.727 -24.233  0.00  0.00    -0.283 OA
ENDROOT
BRANCH   1  14
ATOM     13  C   UNL     1      -5.925   2.606 -21.656  0.00  0.00    +0.277 C 
ATOM     14  O   UNL     1      -5.231   3.705 -21.673  0.00  0.00    -0.489 OA
ENDBRANCH   1  14
BRANCH   8  15
ATOM     15  O   UNL     1      -3.326   3.728 -25.956  0.00  0.00    -0.494 OA
ATOM     16  C   UNL     1      -3.132   3.419 -27.203  0.00  0.00    +0.277 C 
ENDBRANCH   8  15
BRANCH   6  17
ATOM     17  O   UNL     1       1.108   3.664 -25.167  0.00  0.00    -0.487 OA
BRANCH  17  18
ATOM     18  C   UNL     1       1.793   2.559 -25.160  0.00  0.00    +0.264 C 
BRANCH  18  19
ATOM     19  C   UNL     1       2.740   2.386 -24.287  0.00  0.00    -0.010 A 
ATOM     20  C   UNL     1       3.063   1.186 -23.908  0.00  0.00    +0.007 A 
ATOM     21  C   UNL     1       4.011   1.013 -23.034  0.00  0.00    +0.000 A 
ATOM     22  C   UNL     1       4.635   2.041 -22.540  0.00  0.00    +0.000 A 
ATOM     23  C   UNL     1       4.311   3.242 -22.919  0.00  0.00    +0.000 A 
ATOM     24  C   UNL     1       3.363   3.415 -23.793  0.00  0.00    +0.007 A 
ENDBRANCH  18  19
ENDBRANCH  17  18
ENDBRANCH   6  17
TORSDOF 5
ENDMDL
MODEL 3
REMARK VINA RESULT:    -8.401      1.470      7.192
REMARK INTER + INTRA:         -11.132
REMARK INTER:                 -10.995
REMARK INTRA:                  -0.137
REMARK UNBOUND:                -0.276
REMARK  Name = ZINC000000338220
REMARK  8 active torsions:
REMARK  status: ('A' for Active; 'I' for Inactive)
REMARK    1  A    between atoms: C_1  and  O_2
REMARK    2  A    between atoms: O_2  and  C_3
REMARK    3  A    between atoms: C_4  and  C_5
REMARK    4  A    between atoms: C_9  and  O_10
REMARK    5  A    between atoms: O_10  and  C_11
REMARK    6  A    between atoms: C_11  and  C_12
REMARK    7  A    between atoms: C_19  and  O_20
REMARK    8  A    between atoms: O_20  and  C_21
REMARK                            x       y       z     vdW  Elec       q    Type
REMARK                         _______ _______ _______ _____ _____    ______ ____
ROOT
ATOM      1  C   UNL     1      -3.429   3.460 -22.675  0.00  0.00    +0.205 A 
ATOM      2  C   UNL     1      -3.467   2.624 -21.680  0.00  0.00    +0.148 A 
ATOM      3  O   UNL     1      -2.396   1.966 -21.343  0.00  0.00    -0.456 OA
ATOM      4  C   UNL     1      -1.290   2.145 -22.001  0.00  0.00    +0.146 A 
ATOM      5  C   UNL     1      -0.220   1.487 -21.664  0.00  0.00    +0.092 A 
ATOM      6  C   UNL     1       0.887   1.666 -22.321  0.00  0.00    +0.128 A 
ATOM      7  C   UNL     1       0.925   2.503 -23.316  0.00  0.00    +0.092 A 
ATOM      8  C   UNL     1      -0.145   3.160 -23.653  0.00  0.00    +0.138 A 
ATOM      9  C   UNL     1      -1.252   2.981 -22.995  0.00  0.00    +0.109 A 
ATOM     10  C   UNL     1      -4.573   2.444 -21.023  0.00  0.00    +0.090 C 
ATOM     11  C   UNL     1      -2.321   3.639 -23.332  0.00  0.00    +0.238 A 
ATOM     12  O   UNL     1      -2.284   4.475 -24.327  0.00  0.00    -0.283 OA
ENDROOT
BRANCH   1  14
ATOM     13  C   UNL     1      -5.152   3.787 -24.085  0.00  0.00    +0.277 C 
ATOM     14  O   UNL     1      -4.498   4.117 -23.012  0.00  0.00    -0.489 OA
ENDBRANCH   1  14
BRANCH   8  15
ATOM     15  O   UNL     1      -0.108   3.997 -24.647  0.00  0.00    -0.494 OA
ATOM     16  C   UNL     1       0.926   4.024 -25.435  0.00  0.00    +0.277 C 
ENDBRANCH   8  15
BRANCH   6  17
ATOM     17  O   UNL     1       1.957   1.008 -21.984  0.00  0.00    -0.487 OA
BRANCH  17  18
ATOM     18  C   UNL     1       2.979   0.975 -22.786  0.00  0.00    +0.264 C 
BRANCH  18  19
ATOM     19  C   UNL     1       4.029   1.698 -22.531  0.00  0.00    -0.010 A 
ATOM     20  C   UNL     1       4.544   2.446 -23.461  0.00  0.00    +0.007 A 
ATOM     21  C   UNL     1       5.594   3.170 -23.206  0.00  0.00    +0.000 A 
ATOM     22  C   UNL     1       6.128   3.145 -22.021  0.00  0.00    +0.000 A 
ATOM     23  C   UNL     1       5.613   2.397 -21.092  0.00  0.00    +0.000 A 
ATOM     24  C   UNL     1       4.563   1.673 -21.346  0.00  0.00    +0.007 A 
ENDBRANCH  18  19
ENDBRANCH  17  18
ENDBRANCH   6  17
TORSDOF 5
ENDMDL
MODEL 4
REMARK VINA RESULT:    -8.350      2.129      3.258
REMARK INTER + INTRA:         -11.067
REMARK INTER:                 -10.729
REMARK INTRA:                  -0.338
REMARK UNBOUND:                -0.276
REMARK  Name = ZINC000000338220
REMARK  8 active torsions:
REMARK  status: ('A' for Active; 'I' for Inactive)
REMARK    1  A    between atoms: C_1  and  O_2
REMARK    2  A    between atoms: O_2  and  C_3
REMARK    3  A    between atoms: C_4  and  C_5
REMARK    4  A    between atoms: C_9  and  O_10
REMARK    5  A    between atoms: O_10  and  C_11
REMARK    6  A    between atoms: C_11  and  C_12
REMARK    7  A    between atoms: C_19  and  O_20
REMARK    8  A    between atoms: O_20  and  C_21
REMARK                            x       y       z     vdW  Elec       q    Type
REMARK                         _______ _______ _______ _____ _____    ______ ____
ROOT
ATOM      1  C   UNL     1       5.147   5.148 -22.795  0.00  0.00    +0.205 A 
ATOM      2  C   UNL     1       4.373   6.143 -22.478  0.00  0.00    +0.148 A 
ATOM      3  O   UNL     1       3.088   6.049 -22.655  0.00  0.00    -0.456 OA
ATOM      4  C   UNL     1       2.578   4.961 -23.148  0.00  0.00    +0.146 A 
ATOM      5  C   UNL     1       1.293   4.867 -23.324  0.00  0.00    +0.092 A 
ATOM      6  C   UNL     1       0.781   3.779 -23.817  0.00  0.00    +0.128 A 
ATOM      7  C   UNL     1       1.555   2.783 -24.135  0.00  0.00    +0.092 A 
ATOM      8  C   UNL     1       2.840   2.877 -23.958  0.00  0.00    +0.138 A 
ATOM      9  C   UNL     1       3.351   3.965 -23.465  0.00  0.00    +0.109 A 
ATOM     10  C   UNL     1       4.884   7.232 -21.985  0.00  0.00    +0.090 C 
ATOM     11  C   UNL     1       4.635   4.059 -23.289  0.00  0.00    +0.238 A 
ATOM     12  O   UNL     1       5.409   3.063 -23.606  0.00  0.00    -0.283 OA
ENDROOT
BRANCH   1  14
ATOM     13  C   UNL     1       6.987   4.683 -21.586  0.00  0.00    +0.277 C 
ATOM     14  O   UNL     1       6.431   5.241 -22.619  0.00  0.00    -0.489 OA
ENDBRANCH   1  14
BRANCH   8  15
ATOM     15  O   UNL     1       3.614   1.881 -24.275  0.00  0.00    -0.494 OA
ATOM     16  C   UNL     1       3.116   0.831 -24.857  0.00  0.00    +0.277 C 
ENDBRANCH   8  15
BRANCH   6  17
ATOM     17  O   UNL     1      -0.503   3.686 -23.993  0.00  0.00    -0.487 OA
BRANCH  17  18
ATOM     18  C   UNL     1      -1.169   2.724 -23.426  0.00  0.00    +0.264 C 
BRANCH  18  19
ATOM     19  C   UNL     1      -2.216   2.995 -22.706  0.00  0.00    -0.010 A 
ATOM     20  C   UNL     1      -3.378   3.126 -23.273  0.00  0.00    +0.007 A 
ATOM     21  C   UNL     1      -4.427   3.397 -22.553  0.00  0.00    +0.000 A 
ATOM     22  C   UNL     1      -4.312   3.538 -21.266  0.00  0.00    +0.000 A 
ATOM     23  C   UNL     1      -3.150   3.407 -20.698  0.00  0.00    +0.000 A 
ATOM     24  C   UNL     1      -2.102   3.135 -21.419  0.00  0.00    +0.007 A 
ENDBRANCH  18  19
ENDBRANCH  17  18
ENDBRANCH   6  17
TORSDOF 5
ENDMDL
MODEL 5
REMARK VINA RESULT:    -8.318      1.570      3.137
REMARK INTER + INTRA:         -11.025
REMARK INTER:                 -10.822
REMARK INTRA:                  -0.203
REMARK UNBOUND:                -0.276
REMARK  Name = ZINC000000338220
REMARK  8 active torsions:
REMARK  status: ('A' for Active; 'I' for Inactive)
REMARK    1  A    between atoms: C_1  and  O_2
REMARK    2  A    between atoms: O_2  and  C_3
REMARK    3  A    between atoms: C_4  and  C_5
REMARK    4  A    between atoms: C_9  and  O_10
REMARK    5  A    between atoms: O_10  and  C_11
REMARK    6  A    between atoms: C_11  and  C_12
REMARK    7  A    between atoms: C_19  and  O_20
REMARK    8  A    between atoms: O_20  and  C_21
REMARK                            x       y       z     vdW  Elec       q    Type
REMARK                         _______ _______ _______ _____ _____    ______ ____
ROOT
ATOM      1  C   UNL     1       4.239   1.913 -21.491  0.00  0.00    +0.205 A 
ATOM      2  C   UNL     1       4.716   2.704 -22.406  0.00  0.00    +0.148 A 
ATOM      3  O   UNL     1       3.913   3.266 -23.261  0.00  0.00    -0.456 OA
ATOM      4  C   UNL     1       2.635   3.036 -23.201  0.00  0.00    +0.146 A 
ATOM      5  C   UNL     1       1.833   3.598 -24.056  0.00  0.00    +0.092 A 
ATOM      6  C   UNL     1       0.555   3.369 -23.998  0.00  0.00    +0.128 A 
ATOM      7  C   UNL     1       0.078   2.577 -23.082  0.00  0.00    +0.092 A 
ATOM      8  C   UNL     1       0.881   2.015 -22.227  0.00  0.00    +0.138 A 
ATOM      9  C   UNL     1       2.159   2.245 -22.287  0.00  0.00    +0.109 A 
ATOM     10  C   UNL     1       5.994   2.934 -22.466  0.00  0.00    +0.090 C 
ATOM     11  C   UNL     1       2.961   1.683 -21.432  0.00  0.00    +0.238 A 
ATOM     12  O   UNL     1       2.484   0.892 -20.517  0.00  0.00    -0.283 OA
ENDROOT
BRANCH   1  14
ATOM     13  C   UNL     1       5.241   0.067 -20.680  0.00  0.00    +0.277 C 
ATOM     14  O   UNL     1       5.041   1.351 -20.636  0.00  0.00    -0.489 OA
ENDBRANCH   1  14
BRANCH   8  15
ATOM     15  O   UNL     1       0.405   1.224 -21.312  0.00  0.00    -0.494 OA
ATOM     16  C   UNL     1      -0.879   1.138 -21.131  0.00  0.00    +0.277 C 
ENDBRANCH   8  15
BRANCH   6  17
ATOM     17  O   UNL     1      -0.247   3.930 -24.853  0.00  0.00    -0.487 OA
BRANCH  17  18
ATOM     18  C   UNL     1      -1.363   4.459 -24.447  0.00  0.00    +0.264 C 
BRANCH  18  19
ATOM     19  C   UNL     1      -2.492   4.059 -24.950  0.00  0.00    -0.010 A 
ATOM     20  C   UNL     1      -2.517   3.484 -26.115  0.00  0.00    +0.007 A 
ATOM     21  C   UNL     1      -3.647   3.083 -26.619  0.00  0.00    +0.000 A 
ATOM     22  C   UNL     1      -4.752   3.258 -25.957  0.00  0.00    +0.000 A 
ATOM     23  C   UNL     1      -4.727   3.832 -24.791  0.00  0.00    +0.000 A 
ATOM     24  C   UNL     1      -3.597   4.233 -24.287  0.00  0.00    +0.007 A 
ENDBRANCH  18  19
ENDBRANCH  17  18
ENDBRANCH   6  17
TORSDOF 5
ENDMDL
MODEL 6
REMARK VINA RESULT:    -8.287      2.486      3.566
REMARK INTER + INTRA:         -10.986
REMARK INTER:                 -10.738
REMARK INTRA:                  -0.248
REMARK UNBOUND:                -0.276
REMARK  Name = ZINC000000338220
REMARK  8 active torsions:
REMARK  status: ('A' for Active; 'I' for Inactive)
REMARK    1  A    between atoms: C_1  and  O_2
REMARK    2  A    between atoms: O_2  and  C_3
REMARK    3  A    between atoms: C_4  and  C_5
REMARK    4  A    between atoms: C_9  and  O_10
REMARK    5  A    between atoms: O_10  and  C_11
REMARK    6  A    between atoms: C_11  and  C_12
REMARK    7  A    between atoms: C_19  and  O_20
REMARK    8  A    between atoms: O_20  and  C_21
REMARK                            x       y       z     vdW  Elec       q    Type
REMARK                         _______ _______ _______ _____ _____    ______ ____
ROOT
ATOM      1  C   UNL     1       5.598   5.084 -22.709  0.00  0.00    +0.205 A 
ATOM      2  C   UNL     1       4.938   6.150 -22.362  0.00  0.00    +0.148 A 
ATOM      3  O   UNL     1       3.651   6.203 -22.539  0.00  0.00    -0.456 OA
ATOM      4  C   UNL     1       3.024   5.191 -23.062  0.00  0.00    +0.146 A 
ATOM      5  C   UNL     1       1.738   5.245 -23.239  0.00  0.00    +0.092 A 
ATOM      6  C   UNL     1       1.110   4.234 -23.761  0.00  0.00    +0.128 A 
ATOM      7  C   UNL     1       1.770   3.168 -24.108  0.00  0.00    +0.092 A 
ATOM      8  C   UNL     1       3.057   3.114 -23.931  0.00  0.00    +0.138 A 
ATOM      9  C   UNL     1       3.684   4.126 -23.408  0.00  0.00    +0.109 A 
ATOM     10  C   UNL     1       5.565   7.161 -21.840  0.00  0.00    +0.090 C 
ATOM     11  C   UNL     1       4.970   4.072 -23.231  0.00  0.00    +0.238 A 
ATOM     12  O   UNL     1       5.630   3.007 -23.577  0.00  0.00    -0.283 OA
ENDROOT
BRANCH   1  14
ATOM     13  C   UNL     1       7.687   5.291 -23.520  0.00  0.00    +0.277 C 
ATOM     14  O   UNL     1       6.884   5.030 -22.532  0.00  0.00    -0.489 OA
ENDBRANCH   1  14
BRANCH   8  15
ATOM     15  O   UNL     1       3.717   2.049 -24.277  0.00  0.00    -0.494 OA
ATOM     16  C   UNL     1       3.077   0.966 -24.605  0.00  0.00    +0.277 C 
ENDBRANCH   8  15
BRANCH   6  17
ATOM     17  O   UNL     1      -0.177   4.288 -23.938  0.00  0.00    -0.487 OA
BRANCH  17  18
ATOM     18  C   UNL     1      -0.715   3.720 -24.976  0.00  0.00    +0.264 C 
BRANCH  18  19
ATOM     19  C   UNL     1      -2.007   3.710 -25.115  0.00  0.00    -0.010 A 
ATOM     20  C   UNL     1      -2.770   4.062 -24.123  0.00  0.00    +0.007 A 
ATOM     21  C   UNL     1      -4.063   4.052 -24.261  0.00  0.00    +0.000 A 
ATOM     22  C   UNL     1      -4.592   3.689 -25.392  0.00  0.00    +0.000 A 
ATOM     23  C   UNL     1      -3.830   3.337 -26.384  0.00  0.00    +0.000 A 
ATOM     24  C   UNL     1      -2.537   3.348 -26.246  0.00  0.00    +0.007 A 
ENDBRANCH  18  19
ENDBRANCH  17  18
ENDBRANCH   6  17
TORSDOF 5
ENDMDL
MODEL 7
REMARK VINA RESULT:    -7.722      2.054      7.786
REMARK INTER + INTRA:         -10.255
REMARK INTER:                  -9.907
REMARK INTRA:                  -0.348
REMARK UNBOUND:                -0.276
REMARK  Name = ZINC000000338220
REMARK  8 active torsions:
REMARK  status: ('A' for Active; 'I' for Inactive)
REMARK    1  A    between atoms: C_1  and  O_2
REMARK    2  A    between atoms: O_2  and  C_3
REMARK    3  A    between atoms: C_4  and  C_5
REMARK    4  A    between atoms: C_9  and  O_10
REMARK    5  A    between atoms: O_10  and  C_11
REMARK    6  A    between atoms: C_11  and  C_12
REMARK    7  A    between atoms: C_19  and  O_20
REMARK    8  A    between atoms: O_20  and  C_21
REMARK                            x       y       z     vdW  Elec       q    Type
REMARK                         _______ _______ _______ _____ _____    ______ ____
ROOT
ATOM      1  C   UNL     1      -0.931   2.851 -23.039  0.00  0.00    +0.205 A 
ATOM      2  C   UNL     1      -0.888   4.054 -23.531  0.00  0.00    +0.148 A 
ATOM      3  O   UNL     1       0.255   4.657 -23.672  0.00  0.00    -0.456 OA
ATOM      4  C   UNL     1       1.354   4.059 -23.321  0.00  0.00    +0.146 A 
ATOM      5  C   UNL     1       2.497   4.662 -23.462  0.00  0.00    +0.092 A 
ATOM      6  C   UNL     1       3.597   4.065 -23.112  0.00  0.00    +0.128 A 
ATOM      7  C   UNL     1       3.553   2.861 -22.620  0.00  0.00    +0.092 A 
ATOM      8  C   UNL     1       2.410   2.257 -22.479  0.00  0.00    +0.138 A 
ATOM      9  C   UNL     1       1.311   2.856 -22.829  0.00  0.00    +0.109 A 
ATOM     10  C   UNL     1      -1.987   4.652 -23.882  0.00  0.00    +0.090 C 
ATOM     11  C   UNL     1       0.169   2.252 -22.688  0.00  0.00    +0.238 A 
ATOM     12  O   UNL     1       0.126   1.050 -22.196  0.00  0.00    -0.283 OA
ENDROOT
BRANCH   1  14
ATOM     13  C   UNL     1      -2.681   2.267 -21.749  0.00  0.00    +0.277 C 
ATOM     14  O   UNL     1      -2.073   2.247 -22.898  0.00  0.00    -0.489 OA
ENDBRANCH   1  14
BRANCH   8  15
ATOM     15  O   UNL     1       2.367   1.055 -21.987  0.00  0.00    -0.494 OA
ATOM     16  C   UNL     1       3.470   0.419 -21.726  0.00  0.00    +0.277 C 
ENDBRANCH   8  15
BRANCH   6  17
ATOM     17  O   UNL     1       4.739   4.668 -23.253  0.00  0.00    -0.487 OA
BRANCH  17  18
ATOM     18  C   UNL     1       5.790   4.225 -22.629  0.00  0.00    +0.264 C 
BRANCH  18  19
ATOM     19  C   UNL     1       6.442   5.005 -21.820  0.00  0.00    -0.010 A 
ATOM     20  C   UNL     1       7.188   4.494 -20.886  0.00  0.00    +0.007 A 
ATOM     21  C   UNL     1       7.841   5.274 -20.075  0.00  0.00    +0.000 A 
ATOM     22  C   UNL     1       7.748   6.564 -20.201  0.00  0.00    +0.000 A 
ATOM     23  C   UNL     1       7.003   7.075 -21.135  0.00  0.00    +0.000 A 
ATOM     24  C   UNL     1       6.350   6.295 -21.945  0.00  0.00    +0.007 A 
ENDBRANCH  18  19
ENDBRANCH  17  18
ENDBRANCH   6  17
TORSDOF 5
ENDMDL
MODEL 8
REMARK VINA RESULT:    -6.974      3.385      5.456
REMARK INTER + INTRA:          -9.288
REMARK INTER:                  -8.934
REMARK INTRA:                  -0.354
REMARK UNBOUND:                -0.276
REMARK  Name = ZINC000000338220
REMARK  8 active torsions:
REMARK  status: ('A' for Active; 'I' for Inactive)
REMARK    1  A    between atoms: C_1  and  O_2
REMARK    2  A    between atoms: O_2  and  C_3
REMARK    3  A    between atoms: C_4  and  C_5
REMARK    4  A    between atoms: C_9  and  O_10
REMARK    5  A    between atoms: O_10  and  C_11
REMARK    6  A    between atoms: C_11  and  C_12
REMARK    7  A    between atoms: C_19  and  O_20
REMARK    8  A    between atoms: O_20  and  C_21
REMARK                            x       y       z     vdW  Elec       q    Type
REMARK                         _______ _______ _______ _____ _____    ______ ____
ROOT
ATOM      1  C   UNL     1       5.952   7.454 -21.402  0.00  0.00    +0.205 A 
ATOM      2  C   UNL     1       4.728   7.892 -21.387  0.00  0.00    +0.148 A 
ATOM      3  O   UNL     1       3.779   7.189 -21.932  0.00  0.00    -0.456 OA
ATOM      4  C   UNL     1       4.054   6.048 -22.490  0.00  0.00    +0.146 A 
ATOM      5  C   UNL     1       3.106   5.345 -23.034  0.00  0.00    +0.092 A 
ATOM      6  C   UNL     1       3.380   4.204 -23.592  0.00  0.00    +0.128 A 
ATOM      7  C   UNL     1       4.604   3.765 -23.607  0.00  0.00    +0.092 A 
ATOM      8  C   UNL     1       5.553   4.468 -23.062  0.00  0.00    +0.138 A 
ATOM      9  C   UNL     1       5.278   5.609 -22.504  0.00  0.00    +0.109 A 
ATOM     10  C   UNL     1       4.453   9.034 -20.829  0.00  0.00    +0.090 C 
ATOM     11  C   UNL     1       6.226   6.312 -21.960  0.00  0.00    +0.238 A 
ATOM     12  O   UNL     1       7.450   5.873 -21.974  0.00  0.00    -0.283 OA
ENDROOT
BRANCH   1  14
ATOM     13  C   UNL     1       7.624   8.948 -21.591  0.00  0.00    +0.277 C 
ATOM     14  O   UNL     1       6.900   8.156 -20.858  0.00  0.00    -0.489 OA
ENDBRANCH   1  14
BRANCH   8  15
ATOM     15  O   UNL     1       6.777   4.030 -23.076  0.00  0.00    -0.494 OA
ATOM     16  C   UNL     1       7.019   2.772 -22.855  0.00  0.00    +0.277 C 
ENDBRANCH   8  15
BRANCH   6  17
ATOM     17  O   UNL     1       2.431   3.501 -24.136  0.00  0.00    -0.487 OA
BRANCH  17  18
ATOM     18  C   UNL     1       2.090   2.359 -23.618  0.00  0.00    +0.264 C 
BRANCH  18  19
ATOM     19  C   UNL     1       1.002   2.264 -22.913  0.00  0.00    -0.010 A 
ATOM     20  C   UNL     1       1.026   1.666 -21.759  0.00  0.00    +0.007 A 
ATOM     21  C   UNL     1      -0.062   1.571 -21.053  0.00  0.00    +0.000 A 
ATOM     22  C   UNL     1      -1.174   2.074 -21.502  0.00  0.00    +0.000 A 
ATOM     23  C   UNL     1      -1.198   2.671 -22.656  0.00  0.00    +0.000 A 
ATOM     24  C   UNL     1      -0.110   2.767 -23.362  0.00  0.00    +0.007 A 
ENDBRANCH  18  19
ENDBRANCH  17  18
ENDBRANCH   6  17
TORSDOF 5
ENDMDL
