MODEL 1
REMARK VINA RESULT:    -9.998      0.000      0.000
REMARK INTER + INTRA:          -9.998
REMARK INTER:                  -9.998
REMARK INTRA:                   0.000
REMARK UNBOUND:                 0.000
REMARK  Name = ZINC000004104818
REMARK  3 active torsions:
REMARK  status: ('A' for Active; 'I' for Inactive)
REMARK    1  A    between atoms: C_1  and  C_2
REMARK    2  A    between atoms: C_10  and  C_11
REMARK    3  A    between atoms: C_16  and  C_17
REMARK                            x       y       z     vdW  Elec       q    Type
REMARK                         _______ _______ _______ _____ _____    ______ ____
ROOT
ATOM      1  C   UNL     1      -0.698   2.001 -21.256  0.00  0.00    +0.019 C 
ATOM      2  C   UNL     1      -0.543   2.303 -22.510  0.00  0.00    +0.101 C 
ATOM      3  C   UNL     1       0.565   2.225 -23.185  0.00  0.00    +0.311 C 
ATOM      4  O   UNL     1       0.323   2.610 -24.402  0.00  0.00    -0.458 OA
ATOM      5  C   UNL     1      -0.935   2.926 -24.481  0.00  0.00    +0.212 C 
ATOM      6  C   UNL     1      -1.663   3.361 -25.466  0.00  0.00    +0.191 C 
ATOM      7  O   UNL     1      -2.391   3.797 -26.452  0.00  0.00    -0.361 OA
ATOM      8  C   UNL     1      -2.926   3.608 -25.283  0.00  0.00    +0.097 C 
ATOM      9  C   UNL     1      -4.075   4.001 -25.745  0.00  0.00    +0.044 C 
ATOM     10  C   UNL     1      -3.461   3.418 -24.113  0.00  0.00    +0.040 C 
ATOM     11  C   UNL     1      -4.725   3.665 -23.930  0.00  0.00    +0.037 C 
ATOM     12  C   UNL     1      -5.261   3.475 -22.760  0.00  0.00    +0.151 C 
ATOM     13  O   UNL     1      -5.796   3.285 -21.591  0.00  0.00    -0.365 OA
ATOM     14  C   UNL     1      -4.533   3.039 -21.775  0.00  0.00    +0.093 C 
ATOM     15  C   UNL     1      -4.422   2.678 -20.531  0.00  0.00    +0.044 C 
ATOM     16  C   UNL     1      -3.270   2.793 -21.959  0.00  0.00    +0.038 C 
ATOM     17  C   UNL     1      -2.735   2.982 -23.128  0.00  0.00    +0.011 C 
ATOM     18  O   UNL     1       1.715   1.832 -22.722  0.00  0.00    -0.251 OA
ATOM     19  C   UNL     1      -1.471   2.736 -23.312  0.00  0.00    +0.046 C 
ENDROOT
TORSDOF 0
ENDMDL
MODEL 2
REMARK VINA RESULT:    -9.608      0.859      4.278
REMARK INTER + INTRA:          -9.608
REMARK INTER:                  -9.608
REMARK INTRA:                   0.000
REMARK UNBOUND:                 0.000
REMARK  Name = ZINC000004104818
REMARK  3 active torsions:
REMARK  status: ('A' for Active; 'I' for Inactive)
REMARK    1  A    between atoms: C_1  and  C_2
REMARK    2  A    between atoms: C_10  and  C_11
REMARK    3  A    between atoms: C_16  and  C_17
REMARK                            x       y       z     vdW  Elec       q    Type
REMARK                         _______ _______ _______ _____ _____    ______ ____
ROOT
ATOM      1  C   UNL     1      -4.045   2.328 -20.691  0.00  0.00    +0.019 C 
ATOM      2  C   UNL     1      -4.361   2.820 -21.852  0.00  0.00    +0.101 C 
ATOM      3  C   UNL     1      -5.545   3.210 -22.221  0.00  0.00    +0.311 C 
ATOM      4  O   UNL     1      -5.463   3.639 -23.445  0.00  0.00    -0.458 OA
ATOM      5  C   UNL     1      -4.229   3.515 -23.833  0.00  0.00    +0.212 C 
ATOM      6  C   UNL     1      -3.637   3.797 -24.956  0.00  0.00    +0.191 C 
ATOM      7  O   UNL     1      -3.046   4.079 -26.079  0.00  0.00    -0.361 OA
ATOM      8  C   UNL     1      -2.364   3.573 -25.094  0.00  0.00    +0.097 C 
ATOM      9  C   UNL     1      -1.288   3.606 -25.822  0.00  0.00    +0.044 C 
ATOM     10  C   UNL     1      -1.683   3.066 -24.110  0.00  0.00    +0.040 C 
ATOM     11  C   UNL     1      -0.409   2.842 -24.249  0.00  0.00    +0.037 C 
ATOM     12  C   UNL     1       0.272   2.336 -23.264  0.00  0.00    +0.151 C 
ATOM     13  O   UNL     1       0.953   1.830 -22.280  0.00  0.00    -0.365 OA
ATOM     14  C   UNL     1      -0.320   2.054 -22.141  0.00  0.00    +0.093 C 
ATOM     15  C   UNL     1      -0.267   1.598 -20.925  0.00  0.00    +0.044 C 
ATOM     16  C   UNL     1      -1.593   2.278 -22.003  0.00  0.00    +0.038 C 
ATOM     17  C   UNL     1      -2.274   2.784 -22.987  0.00  0.00    +0.011 C 
ATOM     18  O   UNL     1      -6.621   3.177 -21.493  0.00  0.00    -0.251 OA
ATOM     19  C   UNL     1      -3.547   3.008 -22.849  0.00  0.00    +0.046 C 
ENDROOT
TORSDOF 0
ENDMDL
MODEL 3
REMARK VINA RESULT:    -9.605      1.241      3.433
REMARK INTER + INTRA:          -9.605
REMARK INTER:                  -9.605
REMARK INTRA:                   0.000
REMARK UNBOUND:                 0.000
REMARK  Name = ZINC000004104818
REMARK  3 active torsions:
REMARK  status: ('A' for Active; 'I' for Inactive)
REMARK    1  A    between atoms: C_1  and  C_2
REMARK    2  A    between atoms: C_10  and  C_11
REMARK    3  A    between atoms: C_16  and  C_17
REMARK                            x       y       z     vdW  Elec       q    Type
REMARK                         _______ _______ _______ _____ _____    ______ ____
ROOT
ATOM      1  C   UNL     1       0.093   2.637 -24.384  0.00  0.00    +0.019 C 
ATOM      2  C   UNL     1      -0.429   2.515 -23.200  0.00  0.00    +0.101 C 
ATOM      3  C   UNL     1       0.199   2.151 -22.121  0.00  0.00    +0.311 C 
ATOM      4  O   UNL     1      -0.655   2.147 -21.142  0.00  0.00    -0.458 OA
ATOM      5  C   UNL     1      -1.811   2.508 -21.614  0.00  0.00    +0.212 C 
ATOM      6  C   UNL     1      -2.973   2.659 -21.051  0.00  0.00    +0.191 C 
ATOM      7  O   UNL     1      -4.135   2.810 -20.487  0.00  0.00    -0.361 OA
ATOM      8  C   UNL     1      -3.995   3.038 -21.759  0.00  0.00    +0.097 C 
ATOM      9  C   UNL     1      -5.255   3.343 -21.843  0.00  0.00    +0.044 C 
ATOM     10  C   UNL     1      -3.855   3.265 -23.031  0.00  0.00    +0.040 C 
ATOM     11  C   UNL     1      -4.878   3.644 -23.740  0.00  0.00    +0.037 C 
ATOM     12  C   UNL     1      -4.738   3.871 -25.012  0.00  0.00    +0.151 C 
ATOM     13  O   UNL     1      -4.598   4.098 -26.284  0.00  0.00    -0.365 OA
ATOM     14  C   UNL     1      -3.576   3.720 -25.576  0.00  0.00    +0.093 C 
ATOM     15  C   UNL     1      -2.824   3.764 -26.636  0.00  0.00    +0.044 C 
ATOM     16  C   UNL     1      -2.554   3.341 -24.867  0.00  0.00    +0.038 C 
ATOM     17  C   UNL     1      -2.694   3.114 -23.595  0.00  0.00    +0.011 C 
ATOM     18  O   UNL     1       1.460   1.846 -22.037  0.00  0.00    -0.251 OA
ATOM     19  C   UNL     1      -1.672   2.736 -22.887  0.00  0.00    +0.046 C 
ENDROOT
TORSDOF 0
ENDMDL
MODEL 4
REMARK VINA RESULT:    -9.203      1.171      4.499
REMARK INTER + INTRA:          -9.203
REMARK INTER:                  -9.203
REMARK INTRA:                   0.000
REMARK UNBOUND:                 0.000
REMARK  Name = ZINC000004104818
REMARK  3 active torsions:
REMARK  status: ('A' for Active; 'I' for Inactive)
REMARK    1  A    between atoms: C_1  and  C_2
REMARK    2  A    between atoms: C_10  and  C_11
REMARK    3  A    between atoms: C_16  and  C_17
REMARK                            x       y       z     vdW  Elec       q    Type
REMARK                         _______ _______ _______ _____ _____    ______ ____
ROOT
ATOM      1  C   UNL     1      -1.570   3.461 -25.949  0.00  0.00    +0.019 C 
ATOM      2  C   UNL     1      -2.788   3.656 -25.539  0.00  0.00    +0.101 C 
ATOM      3  C   UNL     1      -3.778   4.089 -26.263  0.00  0.00    +0.311 C 
ATOM      4  O   UNL     1      -4.831   4.153 -25.505  0.00  0.00    -0.458 OA
ATOM      5  C   UNL     1      -4.494   3.761 -24.313  0.00  0.00    +0.212 C 
ATOM      6  C   UNL     1      -5.173   3.643 -23.211  0.00  0.00    +0.191 C 
ATOM      7  O   UNL     1      -5.852   3.525 -22.108  0.00  0.00    -0.361 OA
ATOM      8  C   UNL     1      -4.589   3.218 -22.130  0.00  0.00    +0.097 C 
ATOM      9  C   UNL     1      -4.644   2.905 -20.869  0.00  0.00    +0.044 C 
ATOM     10  C   UNL     1      -3.326   2.911 -22.151  0.00  0.00    +0.040 C 
ATOM     11  C   UNL     1      -2.743   2.486 -21.069  0.00  0.00    +0.037 C 
ATOM     12  C   UNL     1      -1.480   2.179 -21.090  0.00  0.00    +0.151 C 
ATOM     13  O   UNL     1      -0.217   1.872 -21.112  0.00  0.00    -0.365 OA
ATOM     14  C   UNL     1      -0.800   2.297 -22.193  0.00  0.00    +0.093 C 
ATOM     15  C   UNL     1       0.321   2.187 -22.841  0.00  0.00    +0.044 C 
ATOM     16  C   UNL     1      -1.384   2.721 -23.274  0.00  0.00    +0.038 C 
ATOM     17  C   UNL     1      -2.647   3.029 -23.253  0.00  0.00    +0.011 C 
ATOM     18  O   UNL     1      -3.723   4.402 -27.524  0.00  0.00    -0.251 OA
ATOM     19  C   UNL     1      -3.231   3.453 -24.334  0.00  0.00    +0.046 C 
ENDROOT
TORSDOF 0
ENDMDL
MODEL 5
REMARK VINA RESULT:    -8.827      1.933      2.973
REMARK INTER + INTRA:          -8.827
REMARK INTER:                  -8.827
REMARK INTRA:                   0.000
REMARK UNBOUND:                 0.000
REMARK  Name = ZINC000004104818
REMARK  3 active torsions:
REMARK  status: ('A' for Active; 'I' for Inactive)
REMARK    1  A    between atoms: C_1  and  C_2
REMARK    2  A    between atoms: C_10  and  C_11
REMARK    3  A    between atoms: C_16  and  C_17
REMARK                            x       y       z     vdW  Elec       q    Type
REMARK                         _______ _______ _______ _____ _____    ______ ____
ROOT
ATOM      1  C   UNL     1       0.660   1.382 -20.432  0.00  0.00    +0.019 C 
ATOM      2  C   UNL     1       1.350   1.512 -21.526  0.00  0.00    +0.101 C 
ATOM      3  C   UNL     1       2.557   1.073 -21.725  0.00  0.00    +0.311 C 
ATOM      4  O   UNL     1       2.906   1.392 -22.935  0.00  0.00    -0.458 OA
ATOM      5  C   UNL     1       1.915   2.029 -23.485  0.00  0.00    +0.212 C 
ATOM      6  C   UNL     1       1.764   2.551 -24.666  0.00  0.00    +0.191 C 
ATOM      7  O   UNL     1       1.613   3.073 -25.847  0.00  0.00    -0.361 OA
ATOM      8  C   UNL     1       0.651   3.146 -24.976  0.00  0.00    +0.097 C 
ATOM      9  C   UNL     1      -0.080   3.792 -25.837  0.00  0.00    +0.044 C 
ATOM     10  C   UNL     1      -0.311   3.220 -24.105  0.00  0.00    +0.040 C 
ATOM     11  C   UNL     1      -1.425   3.816 -24.415  0.00  0.00    +0.037 C 
ATOM     12  C   UNL     1      -2.387   3.890 -23.544  0.00  0.00    +0.151 C 
ATOM     13  O   UNL     1      -3.349   3.963 -22.672  0.00  0.00    -0.365 OA
ATOM     14  C   UNL     1      -2.236   3.368 -22.362  0.00  0.00    +0.093 C 
ATOM     15  C   UNL     1      -2.704   3.109 -21.178  0.00  0.00    +0.044 C 
ATOM     16  C   UNL     1      -1.123   2.772 -22.053  0.00  0.00    +0.038 C 
ATOM     17  C   UNL     1      -0.161   2.698 -22.924  0.00  0.00    +0.011 C 
ATOM     18  O   UNL     1       3.287   0.427 -20.865  0.00  0.00    -0.251 OA
ATOM     19  C   UNL     1       0.952   2.103 -22.614  0.00  0.00    +0.046 C 
ENDROOT
TORSDOF 0
ENDMDL
MODEL 6
REMARK VINA RESULT:    -8.746      1.686      5.581
REMARK INTER + INTRA:          -8.746
REMARK INTER:                  -8.746
REMARK INTRA:                   0.000
REMARK UNBOUND:                 0.000
REMARK  Name = ZINC000004104818
REMARK  3 active torsions:
REMARK  status: ('A' for Active; 'I' for Inactive)
REMARK    1  A    between atoms: C_1  and  C_2
REMARK    2  A    between atoms: C_10  and  C_11
REMARK    3  A    between atoms: C_16  and  C_17
REMARK                            x       y       z     vdW  Elec       q    Type
REMARK                         _______ _______ _______ _____ _____    ______ ____
ROOT
ATOM      1  C   UNL     1      -3.040   3.882 -24.130  0.00  0.00    +0.019 C 
ATOM      2  C   UNL     1      -2.740   3.276 -23.019  0.00  0.00    +0.101 C 
ATOM      3  C   UNL     1      -3.552   3.044 -22.032  0.00  0.00    +0.311 C 
ATOM      4  O   UNL     1      -2.889   2.421 -21.104  0.00  0.00    -0.458 OA
ATOM      5  C   UNL     1      -1.666   2.268 -21.518  0.00  0.00    +0.212 C 
ATOM      6  C   UNL     1      -0.625   1.715 -20.970  0.00  0.00    +0.191 C 
ATOM      7  O   UNL     1       0.417   1.163 -20.421  0.00  0.00    -0.361 OA
ATOM      8  C   UNL     1       0.509   1.691 -21.605  0.00  0.00    +0.097 C 
ATOM      9  C   UNL     1       1.764   1.359 -21.656  0.00  0.00    +0.044 C 
ATOM     10  C   UNL     1       0.601   2.220 -22.790  0.00  0.00    +0.040 C 
ATOM     11  C   UNL     1       1.735   2.196 -23.425  0.00  0.00    +0.037 C 
ATOM     12  C   UNL     1       1.827   2.724 -24.610  0.00  0.00    +0.151 C 
ATOM     13  O   UNL     1       1.919   3.253 -25.794  0.00  0.00    -0.365 OA
ATOM     14  C   UNL     1       0.786   3.277 -25.158  0.00  0.00    +0.093 C 
ATOM     15  C   UNL     1       0.238   3.901 -26.158  0.00  0.00    +0.044 C 
ATOM     16  C   UNL     1      -0.348   3.301 -24.522  0.00  0.00    +0.038 C 
ATOM     17  C   UNL     1      -0.440   2.772 -23.338  0.00  0.00    +0.011 C 
ATOM     18  O   UNL     1      -4.808   3.377 -21.981  0.00  0.00    -0.251 OA
ATOM     19  C   UNL     1      -1.573   2.796 -22.702  0.00  0.00    +0.046 C 
ENDROOT
TORSDOF 0
ENDMDL
MODEL 7
REMARK VINA RESULT:    -8.191      1.577      5.392
REMARK INTER + INTRA:          -8.191
REMARK INTER:                  -8.191
REMARK INTRA:                   0.000
REMARK UNBOUND:                 0.000
REMARK  Name = ZINC000004104818
REMARK  3 active torsions:
REMARK  status: ('A' for Active; 'I' for Inactive)
REMARK    1  A    between atoms: C_1  and  C_2
REMARK    2  A    between atoms: C_10  and  C_11
REMARK    3  A    between atoms: C_16  and  C_17
REMARK                            x       y       z     vdW  Elec       q    Type
REMARK                         _______ _______ _______ _____ _____    ______ ____
ROOT
ATOM      1  C   UNL     1      -2.433   3.753 -26.385  0.00  0.00    +0.019 C 
ATOM      2  C   UNL     1      -2.986   3.539 -25.228  0.00  0.00    +0.101 C 
ATOM      3  C   UNL     1      -4.249   3.673 -24.949  0.00  0.00    +0.311 C 
ATOM      4  O   UNL     1      -4.417   3.370 -23.696  0.00  0.00    -0.458 OA
ATOM      5  C   UNL     1      -3.259   3.048 -23.202  0.00  0.00    +0.212 C 
ATOM      6  C   UNL     1      -2.895   2.673 -22.011  0.00  0.00    +0.191 C 
ATOM      7  O   UNL     1      -2.532   2.299 -20.820  0.00  0.00    -0.361 OA
ATOM      8  C   UNL     1      -1.647   2.403 -21.767  0.00  0.00    +0.097 C 
ATOM      9  C   UNL     1      -0.717   2.031 -20.939  0.00  0.00    +0.044 C 
ATOM     10  C   UNL     1      -0.763   2.508 -22.714  0.00  0.00    +0.040 C 
ATOM     11  C   UNL     1       0.486   2.238 -22.470  0.00  0.00    +0.037 C 
ATOM     12  C   UNL     1       1.370   2.342 -23.417  0.00  0.00    +0.151 C 
ATOM     13  O   UNL     1       2.254   2.447 -24.365  0.00  0.00    -0.365 OA
ATOM     14  C   UNL     1       1.006   2.717 -24.608  0.00  0.00    +0.093 C 
ATOM     15  C   UNL     1       1.307   2.994 -25.842  0.00  0.00    +0.044 C 
ATOM     16  C   UNL     1      -0.242   2.987 -24.852  0.00  0.00    +0.038 C 
ATOM     17  C   UNL     1      -1.126   2.882 -23.905  0.00  0.00    +0.011 C 
ATOM     18  O   UNL     1      -5.180   4.045 -25.776  0.00  0.00    -0.251 OA
ATOM     19  C   UNL     1      -2.374   3.153 -24.148  0.00  0.00    +0.046 C 
ENDROOT
TORSDOF 0
ENDMDL
MODEL 8
REMARK VINA RESULT:    -8.027      1.832      4.072
REMARK INTER + INTRA:          -8.027
REMARK INTER:                  -8.027
REMARK INTRA:                   0.000
REMARK UNBOUND:                 0.000
REMARK  Name = ZINC000004104818
REMARK  3 active torsions:
REMARK  status: ('A' for Active; 'I' for Inactive)
REMARK    1  A    between atoms: C_1  and  C_2
REMARK    2  A    between atoms: C_10  and  C_11
REMARK    3  A    between atoms: C_16  and  C_17
REMARK                            x       y       z     vdW  Elec       q    Type
REMARK                         _______ _______ _______ _____ _____    ______ ____
ROOT
ATOM      1  C   UNL     1       1.650   3.344 -25.621  0.00  0.00    +0.019 C 
ATOM      2  C   UNL     1       1.845   2.793 -24.460  0.00  0.00    +0.101 C 
ATOM      3  C   UNL     1       2.994   2.446 -23.963  0.00  0.00    +0.311 C 
ATOM      4  O   UNL     1       2.784   1.930 -22.789  0.00  0.00    -0.458 OA
ATOM      5  C   UNL     1       1.505   1.958 -22.560  0.00  0.00    +0.212 C 
ATOM      6  C   UNL     1       0.794   1.566 -21.545  0.00  0.00    +0.191 C 
ATOM      7  O   UNL     1       0.082   1.174 -20.529  0.00  0.00    -0.361 OA
ATOM      8  C   UNL     1      -0.498   1.708 -21.563  0.00  0.00    +0.097 C 
ATOM      9  C   UNL     1      -1.655   1.564 -20.987  0.00  0.00    +0.044 C 
ATOM     10  C   UNL     1      -1.079   2.241 -22.596  0.00  0.00    +0.040 C 
ATOM     11  C   UNL     1      -2.372   2.383 -22.614  0.00  0.00    +0.037 C 
ATOM     12  C   UNL     1      -2.953   2.916 -23.648  0.00  0.00    +0.151 C 
ATOM     13  O   UNL     1      -3.533   3.450 -24.681  0.00  0.00    -0.365 OA
ATOM     14  C   UNL     1      -2.241   3.308 -24.663  0.00  0.00    +0.093 C 
ATOM     15  C   UNL     1      -2.166   3.842 -25.846  0.00  0.00    +0.044 C 
ATOM     16  C   UNL     1      -0.949   3.166 -24.645  0.00  0.00    +0.038 C 
ATOM     17  C   UNL     1      -0.368   2.633 -23.612  0.00  0.00    +0.011 C 
ATOM     18  O   UNL     1       4.151   2.590 -24.538  0.00  0.00    -0.251 OA
ATOM     19  C   UNL     1       0.924   2.491 -23.594  0.00  0.00    +0.046 C 
ENDROOT
TORSDOF 0
ENDMDL
MODEL 9
REMARK VINA RESULT:    -7.994      2.972      6.529
REMARK INTER + INTRA:          -7.994
REMARK INTER:                  -7.994
REMARK INTRA:                   0.000
REMARK UNBOUND:                 0.000
REMARK  Name = ZINC000004104818
REMARK  3 active torsions:
REMARK  status: ('A' for Active; 'I' for Inactive)
REMARK    1  A    between atoms: C_1  and  C_2
REMARK    2  A    between atoms: C_10  and  C_11
REMARK    3  A    between atoms: C_16  and  C_17
REMARK                            x       y       z     vdW  Elec       q    Type
REMARK                         _______ _______ _______ _____ _____    ______ ____
ROOT
ATOM      1  C   UNL     1      -0.422   4.843 -22.908  0.00  0.00    +0.019 C 
ATOM      2  C   UNL     1      -0.275   3.552 -22.870  0.00  0.00    +0.101 C 
ATOM      3  C   UNL     1      -1.233   2.674 -22.847  0.00  0.00    +0.311 C 
ATOM      4  O   UNL     1      -0.694   1.492 -22.810  0.00  0.00    -0.458 OA
ATOM      5  C   UNL     1       0.597   1.639 -22.811  0.00  0.00    +0.212 C 
ATOM      6  C   UNL     1       1.571   0.778 -22.783  0.00  0.00    +0.191 C 
ATOM      7  O   UNL     1       2.545  -0.083 -22.755  0.00  0.00    -0.361 OA
ATOM      8  C   UNL     1       2.804   1.190 -22.792  0.00  0.00    +0.097 C 
ATOM      9  C   UNL     1       4.078   0.931 -22.780  0.00  0.00    +0.044 C 
ATOM     10  C   UNL     1       3.063   2.463 -22.829  0.00  0.00    +0.040 C 
ATOM     11  C   UNL     1       4.296   2.875 -22.837  0.00  0.00    +0.037 C 
ATOM     12  C   UNL     1       4.555   4.149 -22.874  0.00  0.00    +0.151 C 
ATOM     13  O   UNL     1       4.814   5.422 -22.911  0.00  0.00    -0.365 OA
ATOM     14  C   UNL     1       3.581   5.010 -22.902  0.00  0.00    +0.093 C 
ATOM     15  C   UNL     1       3.169   6.242 -22.940  0.00  0.00    +0.044 C 
ATOM     16  C   UNL     1       2.349   4.598 -22.893  0.00  0.00    +0.038 C 
ATOM     17  C   UNL     1       2.090   3.325 -22.857  0.00  0.00    +0.011 C 
ATOM     18  O   UNL     1      -2.507   2.933 -22.858  0.00  0.00    -0.251 OA
ATOM     19  C   UNL     1       0.857   2.912 -22.848  0.00  0.00    +0.046 C 
ENDROOT
TORSDOF 0
ENDMDL
