MODEL 1
REMARK VINA RESULT:    -9.914      0.000      0.000
REMARK INTER + INTRA:         -10.494
REMARK INTER:                 -10.494
REMARK INTRA:                   0.000
REMARK UNBOUND:                 0.000
REMARK  Name = ZINC000004104694
REMARK  6 active torsions:
REMARK  status: ('A' for Active; 'I' for Inactive)
REMARK    1  A    between atoms: C_1  and  C_2
REMARK    2  A    between atoms: C_2  and  C_3
REMARK    3  A    between atoms: C_7  and  C_8
REMARK    4  A    between atoms: C_7  and  O_9
REMARK    5  A    between atoms: C_13  and  C_14
REMARK    6  A    between atoms: C_13  and  O_15
REMARK                            x       y       z     vdW  Elec       q    Type
REMARK                         _______ _______ _______ _____ _____    ______ ____
ROOT
ATOM      1  C   UNL     1       0.000   2.201 -22.979  0.00  0.00    +0.011 C 
ATOM      2  C   UNL     1      -1.008   2.284 -22.161  0.00  0.00    -0.028 C 
ATOM      3  C   UNL     1      -2.211   2.510 -21.724  0.00  0.00    -0.001 C 
ATOM      4  C   UNL     1      -3.347   2.678 -21.114  0.00  0.00    +0.007 C 
ATOM      5  C   UNL     1      -4.474   3.101 -21.603  0.00  0.00    +0.035 C 
ATOM      6  C   UNL     1      -4.745   3.462 -22.823  0.00  0.00    +0.066 C 
ATOM      7  C   UNL     1      -3.954   3.488 -23.854  0.00  0.00    +0.027 C 
ATOM      8  C   UNL     1      -4.333   3.870 -25.037  0.00  0.00    +0.009 C 
ATOM      9  C   UNL     1      -3.311   3.779 -25.836  0.00  0.00    +0.035 C 
ATOM     10  C   UNL     1      -2.300   3.340 -25.146  0.00  0.00    +0.067 C 
ATOM     11  C   UNL     1      -1.157   2.920 -24.693  0.00  0.00    +0.041 C 
ATOM     12  C   UNL     1      -2.697   3.160 -23.922  0.00  0.00    +0.030 C 
ATOM     13  C   UNL     1      -5.520   3.897 -23.771  0.00  0.00    +0.041 C 
ATOM     14  C   UNL     1      -0.443   1.872 -21.064  0.00  0.00    +0.011 C 
ATOM     15  C   UNL     1      -1.922   2.725 -22.974  0.00  0.00    +0.005 C 
ENDROOT
BRANCH  10  16
ATOM     16  O   UNL     1      -1.663   3.431 -26.276  0.00  0.00    -0.389 OA
ATOM     17  H   UNL     1      -1.720   4.342 -26.606  0.00  0.00    +0.210 HD
ENDBRANCH  10  16
BRANCH   6  18
ATOM     18  O   UNL     1      -5.881   3.630 -22.213  0.00  0.00    -0.389 OA
ATOM     19  H   UNL     1      -5.775   4.286 -21.506  0.00  0.00    +0.210 HD
ENDBRANCH   6  18
TORSDOF 2
ENDMDL
MODEL 2
REMARK VINA RESULT:    -9.628      1.068      3.213
REMARK INTER + INTRA:         -10.190
REMARK INTER:                 -10.190
REMARK INTRA:                   0.000
REMARK UNBOUND:                 0.000
REMARK  Name = ZINC000004104694
REMARK  6 active torsions:
REMARK  status: ('A' for Active; 'I' for Inactive)
REMARK    1  A    between atoms: C_1  and  C_2
REMARK    2  A    between atoms: C_2  and  C_3
REMARK    3  A    between atoms: C_7  and  C_8
REMARK    4  A    between atoms: C_7  and  O_9
REMARK    5  A    between atoms: C_13  and  C_14
REMARK    6  A    between atoms: C_13  and  O_15
REMARK                            x       y       z     vdW  Elec       q    Type
REMARK                         _______ _______ _______ _____ _____    ______ ____
ROOT
ATOM      1  C   UNL     1      -0.713   2.085 -21.683  0.00  0.00    +0.011 C 
ATOM      2  C   UNL     1      -0.753   2.497 -22.915  0.00  0.00    -0.028 C 
ATOM      3  C   UNL     1      -1.224   2.972 -24.030  0.00  0.00    -0.001 C 
ATOM      4  C   UNL     1      -1.514   3.426 -25.213  0.00  0.00    +0.007 C 
ATOM      5  C   UNL     1      -2.660   3.843 -25.662  0.00  0.00    +0.035 C 
ATOM      6  C   UNL     1      -3.800   3.909 -25.040  0.00  0.00    +0.066 C 
ATOM      7  C   UNL     1      -4.074   3.573 -23.814  0.00  0.00    +0.027 C 
ATOM      8  C   UNL     1      -5.259   3.681 -23.290  0.00  0.00    +0.009 C 
ATOM      9  C   UNL     1      -5.194   3.264 -22.060  0.00  0.00    +0.035 C 
ATOM     10  C   UNL     1      -3.969   2.898 -21.824  0.00  0.00    +0.067 C 
ATOM     11  C   UNL     1      -2.840   2.475 -21.340  0.00  0.00    +0.041 C 
ATOM     12  C   UNL     1      -3.277   3.089 -22.908  0.00  0.00    +0.030 C 
ATOM     13  C   UNL     1      -5.069   4.176 -24.943  0.00  0.00    +0.041 C 
ATOM     14  C   UNL     1       0.489   2.316 -23.255  0.00  0.00    +0.011 C 
ATOM     15  C   UNL     1      -2.009   2.822 -23.004  0.00  0.00    +0.005 C 
ENDROOT
BRANCH  10  16
ATOM     16  O   UNL     1      -4.425   2.619 -20.639  0.00  0.00    -0.389 OA
ATOM     17  H   UNL     1      -4.451   1.656 -20.522  0.00  0.00    +0.210 HD
ENDBRANCH  10  16
BRANCH   6  18
ATOM     18  O   UNL     1      -4.090   4.363 -26.223  0.00  0.00    -0.389 OA
ATOM     19  H   UNL     1      -3.288   4.383 -26.768  0.00  0.00    +0.210 HD
ENDBRANCH   6  18
TORSDOF 2
ENDMDL
MODEL 3
REMARK VINA RESULT:    -9.557      1.200      2.032
REMARK INTER + INTRA:         -10.115
REMARK INTER:                 -10.115
REMARK INTRA:                   0.000
REMARK UNBOUND:                 0.000
REMARK  Name = ZINC000004104694
REMARK  6 active torsions:
REMARK  status: ('A' for Active; 'I' for Inactive)
REMARK    1  A    between atoms: C_1  and  C_2
REMARK    2  A    between atoms: C_2  and  C_3
REMARK    3  A    between atoms: C_7  and  C_8
REMARK    4  A    between atoms: C_7  and  O_9
REMARK    5  A    between atoms: C_13  and  C_14
REMARK    6  A    between atoms: C_13  and  O_15
REMARK                            x       y       z     vdW  Elec       q    Type
REMARK                         _______ _______ _______ _____ _____    ______ ____
ROOT
ATOM      1  C   UNL     1      -0.601   3.578 -25.181  0.00  0.00    +0.011 C 
ATOM      2  C   UNL     1      -0.751   3.063 -23.996  0.00  0.00    -0.028 C 
ATOM      3  C   UNL     1      -1.324   2.679 -22.895  0.00  0.00    -0.001 C 
ATOM      4  C   UNL     1      -1.721   2.232 -21.740  0.00  0.00    +0.007 C 
ATOM      5  C   UNL     1      -2.917   2.254 -21.231  0.00  0.00    +0.035 C 
ATOM      6  C   UNL     1      -4.011   2.728 -21.749  0.00  0.00    +0.066 C 
ATOM      7  C   UNL     1      -4.179   3.297 -22.905  0.00  0.00    +0.027 C 
ATOM      8  C   UNL     1      -5.327   3.737 -23.327  0.00  0.00    +0.009 C 
ATOM      9  C   UNL     1      -5.153   4.246 -24.511  0.00  0.00    +0.035 C 
ATOM     10  C   UNL     1      -3.897   4.119 -24.822  0.00  0.00    +0.067 C 
ATOM     11  C   UNL     1      -2.716   4.115 -25.363  0.00  0.00    +0.041 C 
ATOM     12  C   UNL     1      -3.295   3.533 -23.830  0.00  0.00    +0.030 C 
ATOM     13  C   UNL     1      -5.282   3.003 -21.755  0.00  0.00    +0.041 C 
ATOM     14  C   UNL     1       0.472   2.690 -23.756  0.00  0.00    +0.011 C 
ATOM     15  C   UNL     1      -2.025   3.258 -23.825  0.00  0.00    +0.005 C 
ENDROOT
BRANCH  10  16
ATOM     16  O   UNL     1      -4.252   4.705 -25.927  0.00  0.00    -0.389 OA
ATOM     17  H   UNL     1      -4.206   5.667 -25.812  0.00  0.00    +0.210 HD
ENDBRANCH  10  16
BRANCH   6  18
ATOM     18  O   UNL     1      -4.408   2.281 -20.594  0.00  0.00    -0.389 OA
ATOM     19  H   UNL     1      -3.845   1.539 -20.324  0.00  0.00    +0.210 HD
ENDBRANCH   6  18
TORSDOF 2
ENDMDL
MODEL 4
REMARK VINA RESULT:    -9.357      1.294      4.443
REMARK INTER + INTRA:          -9.904
REMARK INTER:                  -9.904
REMARK INTRA:                   0.000
REMARK UNBOUND:                 0.000
REMARK  Name = ZINC000004104694
REMARK  6 active torsions:
REMARK  status: ('A' for Active; 'I' for Inactive)
REMARK    1  A    between atoms: C_1  and  C_2
REMARK    2  A    between atoms: C_2  and  C_3
REMARK    3  A    between atoms: C_7  and  C_8
REMARK    4  A    between atoms: C_7  and  O_9
REMARK    5  A    between atoms: C_13  and  C_14
REMARK    6  A    between atoms: C_13  and  O_15
REMARK                            x       y       z     vdW  Elec       q    Type
REMARK                         _______ _______ _______ _____ _____    ______ ____
ROOT
ATOM      1  C   UNL     1      -4.733   3.834 -25.788  0.00  0.00    +0.011 C 
ATOM      2  C   UNL     1      -3.467   3.562 -25.667  0.00  0.00    -0.028 C 
ATOM      3  C   UNL     1      -2.329   3.267 -25.114  0.00  0.00    -0.001 C 
ATOM      4  C   UNL     1      -1.117   2.978 -24.742  0.00  0.00    +0.007 C 
ATOM      5  C   UNL     1      -0.671   2.750 -23.543  0.00  0.00    +0.035 C 
ATOM      6  C   UNL     1      -1.325   2.755 -22.419  0.00  0.00    +0.066 C 
ATOM      7  C   UNL     1      -2.588   2.989 -22.218  0.00  0.00    +0.027 C 
ATOM      8  C   UNL     1      -3.142   2.968 -21.043  0.00  0.00    +0.009 C 
ATOM      9  C   UNL     1      -4.405   3.242 -21.188  0.00  0.00    +0.035 C 
ATOM     10  C   UNL     1      -4.631   3.433 -22.454  0.00  0.00    +0.067 C 
ATOM     11  C   UNL     1      -5.113   3.666 -23.638  0.00  0.00    +0.041 C 
ATOM     12  C   UNL     1      -3.509   3.276 -23.091  0.00  0.00    +0.030 C 
ATOM     13  C   UNL     1      -1.441   2.631 -21.130  0.00  0.00    +0.041 C 
ATOM     14  C   UNL     1      -3.102   3.630 -26.913  0.00  0.00    +0.011 C 
ATOM     15  C   UNL     1      -3.393   3.400 -24.379  0.00  0.00    +0.005 C 
ENDROOT
BRANCH  10  16
ATOM     16  O   UNL     1      -5.855   3.637 -22.065  0.00  0.00    -0.389 OA
ATOM     17  H   UNL     1      -6.449   3.030 -22.535  0.00  0.00    +0.210 HD
ENDBRANCH  10  16
BRANCH   6  18
ATOM     18  O   UNL     1      -0.113   2.465 -22.047  0.00  0.00    -0.389 OA
ATOM     19  H   UNL     1       0.387   2.128 -22.807  0.00  0.00    +0.210 HD
ENDBRANCH   6  18
TORSDOF 2
ENDMDL
MODEL 5
REMARK VINA RESULT:    -9.332      1.350      3.390
REMARK INTER + INTRA:          -9.878
REMARK INTER:                  -9.878
REMARK INTRA:                   0.000
REMARK UNBOUND:                 0.000
REMARK  Name = ZINC000004104694
REMARK  6 active torsions:
REMARK  status: ('A' for Active; 'I' for Inactive)
REMARK    1  A    between atoms: C_1  and  C_2
REMARK    2  A    between atoms: C_2  and  C_3
REMARK    3  A    between atoms: C_7  and  C_8
REMARK    4  A    between atoms: C_7  and  O_9
REMARK    5  A    between atoms: C_13  and  C_14
REMARK    6  A    between atoms: C_13  and  O_15
REMARK                            x       y       z     vdW  Elec       q    Type
REMARK                         _______ _______ _______ _____ _____    ______ ____
ROOT
ATOM      1  C   UNL     1      -1.342   3.379 -25.842  0.00  0.00    +0.011 C 
ATOM      2  C   UNL     1      -2.622   3.564 -25.704  0.00  0.00    -0.028 C 
ATOM      3  C   UNL     1      -3.788   3.663 -25.137  0.00  0.00    -0.001 C 
ATOM      4  C   UNL     1      -5.021   3.801 -24.749  0.00  0.00    +0.007 C 
ATOM      5  C   UNL     1      -5.510   3.691 -23.550  0.00  0.00    +0.035 C 
ATOM      6  C   UNL     1      -4.888   3.415 -22.442  0.00  0.00    +0.066 C 
ATOM      7  C   UNL     1      -3.622   3.182 -22.261  0.00  0.00    +0.027 C 
ATOM      8  C   UNL     1      -3.102   2.915 -21.100  0.00  0.00    +0.009 C 
ATOM      9  C   UNL     1      -1.824   2.735 -21.263  0.00  0.00    +0.035 C 
ATOM     10  C   UNL     1      -1.555   2.890 -22.525  0.00  0.00    +0.067 C 
ATOM     11  C   UNL     1      -1.030   2.992 -23.710  0.00  0.00    +0.041 C 
ATOM     12  C   UNL     1      -2.665   3.167 -23.142  0.00  0.00    +0.030 C 
ATOM     13  C   UNL     1      -4.813   3.201 -21.162  0.00  0.00    +0.041 C 
ATOM     14  C   UNL     1      -2.949   3.811 -26.937  0.00  0.00    +0.011 C 
ATOM     15  C   UNL     1      -2.739   3.380 -24.422  0.00  0.00    +0.005 C 
ENDROOT
BRANCH  10  16
ATOM     16  O   UNL     1      -0.335   2.635 -22.156  0.00  0.00    -0.389 OA
ATOM     17  H   UNL     1      -0.086   3.227 -21.429  0.00  0.00    +0.210 HD
ENDBRANCH  10  16
BRANCH   6  18
ATOM     18  O   UNL     1      -6.121   3.553 -22.054  0.00  0.00    -0.389 OA
ATOM     19  H   UNL     1      -6.553   2.685 -22.034  0.00  0.00    +0.210 HD
ENDBRANCH   6  18
TORSDOF 2
ENDMDL
MODEL 6
REMARK VINA RESULT:    -9.184      1.504      2.634
REMARK INTER + INTRA:          -9.721
REMARK INTER:                  -9.721
REMARK INTRA:                   0.000
REMARK UNBOUND:                 0.000
REMARK  Name = ZINC000004104694
REMARK  6 active torsions:
REMARK  status: ('A' for Active; 'I' for Inactive)
REMARK    1  A    between atoms: C_1  and  C_2
REMARK    2  A    between atoms: C_2  and  C_3
REMARK    3  A    between atoms: C_7  and  C_8
REMARK    4  A    between atoms: C_7  and  O_9
REMARK    5  A    between atoms: C_13  and  C_14
REMARK    6  A    between atoms: C_13  and  O_15
REMARK                            x       y       z     vdW  Elec       q    Type
REMARK                         _______ _______ _______ _____ _____    ______ ____
ROOT
ATOM      1  C   UNL     1      -2.088   2.961 -20.789  0.00  0.00    +0.011 C 
ATOM      2  C   UNL     1      -3.236   3.177 -21.360  0.00  0.00    -0.028 C 
ATOM      3  C   UNL     1      -4.113   3.404 -22.292  0.00  0.00    -0.001 C 
ATOM      4  C   UNL     1      -5.122   3.630 -23.080  0.00  0.00    +0.007 C 
ATOM      5  C   UNL     1      -5.123   3.790 -24.369  0.00  0.00    +0.035 C 
ATOM      6  C   UNL     1      -4.115   3.765 -25.191  0.00  0.00    +0.066 C 
ATOM      7  C   UNL     1      -2.858   3.573 -24.923  0.00  0.00    +0.027 C 
ATOM      8  C   UNL     1      -1.926   3.567 -25.829  0.00  0.00    +0.009 C 
ATOM      9  C   UNL     1      -0.789   3.350 -25.236  0.00  0.00    +0.035 C 
ATOM     10  C   UNL     1      -1.019   3.220 -23.963  0.00  0.00    +0.067 C 
ATOM     11  C   UNL     1      -0.979   3.055 -22.675  0.00  0.00    +0.041 C 
ATOM     12  C   UNL     1      -2.297   3.358 -23.770  0.00  0.00    +0.030 C 
ATOM     13  C   UNL     1      -3.555   3.840 -26.362  0.00  0.00    +0.041 C 
ATOM     14  C   UNL     1      -4.015   3.146 -20.319  0.00  0.00    +0.011 C 
ATOM     15  C   UNL     1      -2.856   3.283 -22.599  0.00  0.00    +0.005 C 
ENDROOT
BRANCH  10  16
ATOM     16  O   UNL     1       0.268   3.048 -23.887  0.00  0.00    -0.389 OA
ATOM     17  H   UNL     1       0.654   3.740 -23.326  0.00  0.00    +0.210 HD
ENDBRANCH  10  16
BRANCH   6  18
ATOM     18  O   UNL     1      -5.124   3.991 -25.979  0.00  0.00    -0.389 OA
ATOM     19  H   UNL     1      -5.896   4.247 -25.450  0.00  0.00    +0.210 HD
ENDBRANCH   6  18
TORSDOF 2
ENDMDL
MODEL 7
REMARK VINA RESULT:    -9.036      1.659      4.220
REMARK INTER + INTRA:          -9.565
REMARK INTER:                  -9.565
REMARK INTRA:                   0.000
REMARK UNBOUND:                 0.000
REMARK  Name = ZINC000004104694
REMARK  6 active torsions:
REMARK  status: ('A' for Active; 'I' for Inactive)
REMARK    1  A    between atoms: C_1  and  C_2
REMARK    2  A    between atoms: C_2  and  C_3
REMARK    3  A    between atoms: C_7  and  C_8
REMARK    4  A    between atoms: C_7  and  O_9
REMARK    5  A    between atoms: C_13  and  C_14
REMARK    6  A    between atoms: C_13  and  O_15
REMARK                            x       y       z     vdW  Elec       q    Type
REMARK                         _______ _______ _______ _____ _____    ______ ____
ROOT
ATOM      1  C   UNL     1      -4.118   2.670 -20.936  0.00  0.00    +0.011 C 
ATOM      2  C   UNL     1      -4.258   3.072 -22.165  0.00  0.00    -0.028 C 
ATOM      3  C   UNL     1      -3.957   3.382 -23.390  0.00  0.00    -0.001 C 
ATOM      4  C   UNL     1      -3.844   3.737 -24.636  0.00  0.00    +0.007 C 
ATOM      5  C   UNL     1      -2.779   3.747 -25.382  0.00  0.00    +0.035 C 
ATOM      6  C   UNL     1      -1.565   3.405 -25.068  0.00  0.00    +0.066 C 
ATOM      7  C   UNL     1      -1.116   2.968 -23.929  0.00  0.00    +0.027 C 
ATOM      8  C   UNL     1       0.128   2.652 -23.723  0.00  0.00    +0.009 C 
ATOM      9  C   UNL     1       0.244   2.255 -22.490  0.00  0.00    +0.035 C 
ATOM     10  C   UNL     1      -0.929   2.325 -21.934  0.00  0.00    +0.067 C 
ATOM     11  C   UNL     1      -1.971   2.301 -21.158  0.00  0.00    +0.041 C 
ATOM     12  C   UNL     1      -1.769   2.765 -22.823  0.00  0.00    +0.030 C 
ATOM     13  C   UNL     1      -0.300   3.220 -25.306  0.00  0.00    +0.041 C 
ATOM     14  C   UNL     1      -5.532   3.333 -22.173  0.00  0.00    +0.011 C 
ATOM     15  C   UNL     1      -3.034   2.950 -22.583  0.00  0.00    +0.005 C 
ENDROOT
BRANCH  10  16
ATOM     16  O   UNL     1      -0.307   1.879 -20.883  0.00  0.00    -0.389 OA
ATOM     17  H   UNL     1      -0.005   0.971 -21.047  0.00  0.00    +0.210 HD
ENDBRANCH  10  16
BRANCH   6  18
ATOM     18  O   UNL     1      -1.452   3.759 -26.313  0.00  0.00    -0.389 OA
ATOM     19  H   UNL     1      -1.629   4.710 -26.396  0.00  0.00    +0.210 HD
ENDBRANCH   6  18
TORSDOF 2
ENDMDL
MODEL 8
REMARK VINA RESULT:    -9.011      1.550      3.612
REMARK INTER + INTRA:          -9.538
REMARK INTER:                  -9.538
REMARK INTRA:                   0.000
REMARK UNBOUND:                 0.000
REMARK  Name = ZINC000004104694
REMARK  6 active torsions:
REMARK  status: ('A' for Active; 'I' for Inactive)
REMARK    1  A    between atoms: C_1  and  C_2
REMARK    2  A    between atoms: C_2  and  C_3
REMARK    3  A    between atoms: C_7  and  C_8
REMARK    4  A    between atoms: C_7  and  O_9
REMARK    5  A    between atoms: C_13  and  C_14
REMARK    6  A    between atoms: C_13  and  O_15
REMARK                            x       y       z     vdW  Elec       q    Type
REMARK                         _______ _______ _______ _____ _____    ______ ____
ROOT
ATOM      1  C   UNL     1      -5.168   3.801 -24.192  0.00  0.00    +0.011 C 
ATOM      2  C   UNL     1      -4.672   3.409 -23.056  0.00  0.00    -0.028 C 
ATOM      3  C   UNL     1      -3.803   3.012 -22.175  0.00  0.00    -0.001 C 
ATOM      4  C   UNL     1      -3.084   2.610 -21.169  0.00  0.00    +0.007 C 
ATOM      5  C   UNL     1      -1.810   2.358 -21.134  0.00  0.00    +0.035 C 
ATOM      6  C   UNL     1      -0.938   2.444 -22.095  0.00  0.00    +0.066 C 
ATOM      7  C   UNL     1      -1.128   2.804 -23.330  0.00  0.00    +0.027 C 
ATOM      8  C   UNL     1      -0.178   2.855 -24.215  0.00  0.00    +0.009 C 
ATOM      9  C   UNL     1      -0.697   3.250 -25.340  0.00  0.00    +0.035 C 
ATOM     10  C   UNL     1      -1.969   3.442 -25.150  0.00  0.00    +0.067 C 
ATOM     11  C   UNL     1      -3.239   3.704 -25.223  0.00  0.00    +0.041 C 
ATOM     12  C   UNL     1      -2.235   3.167 -23.908  0.00  0.00    +0.030 C 
ATOM     13  C   UNL     1       0.252   2.352 -22.610  0.00  0.00    +0.041 C 
ATOM     14  C   UNL     1      -5.747   3.421 -22.324  0.00  0.00    +0.011 C 
ATOM     15  C   UNL     1      -3.426   3.259 -23.394  0.00  0.00    +0.005 C 
ENDROOT
BRANCH  10  16
ATOM     16  O   UNL     1      -1.968   3.772 -26.408  0.00  0.00    -0.389 OA
ATOM     17  H   UNL     1      -1.806   4.725 -26.492  0.00  0.00    +0.210 HD
ENDBRANCH  10  16
BRANCH   6  18
ATOM     18  O   UNL     1      -0.219   2.043 -21.089  0.00  0.00    -0.389 OA
ATOM     19  H   UNL     1      -0.780   1.556 -20.465  0.00  0.00    +0.210 HD
ENDBRANCH   6  18
TORSDOF 2
ENDMDL
MODEL 9
REMARK VINA RESULT:    -8.640      2.289      4.613
REMARK INTER + INTRA:          -9.145
REMARK INTER:                  -9.145
REMARK INTRA:                   0.000
REMARK UNBOUND:                 0.000
REMARK  Name = ZINC000004104694
REMARK  6 active torsions:
REMARK  status: ('A' for Active; 'I' for Inactive)
REMARK    1  A    between atoms: C_1  and  C_2
REMARK    2  A    between atoms: C_2  and  C_3
REMARK    3  A    between atoms: C_7  and  C_8
REMARK    4  A    between atoms: C_7  and  O_9
REMARK    5  A    between atoms: C_13  and  C_14
REMARK    6  A    between atoms: C_13  and  O_15
REMARK                            x       y       z     vdW  Elec       q    Type
REMARK                         _______ _______ _______ _____ _____    ______ ____
ROOT
ATOM      1  C   UNL     1      -2.735   3.691 -24.180  0.00  0.00    +0.011 C 
ATOM      2  C   UNL     1      -2.343   3.053 -23.117  0.00  0.00    -0.028 C 
ATOM      3  C   UNL     1      -1.560   2.440 -22.280  0.00  0.00    -0.001 C 
ATOM      4  C   UNL     1      -0.936   1.806 -21.331  0.00  0.00    +0.007 C 
ATOM      5  C   UNL     1       0.319   1.478 -21.266  0.00  0.00    +0.035 C 
ATOM      6  C   UNL     1       1.263   1.701 -22.133  0.00  0.00    +0.066 C 
ATOM      7  C   UNL     1       1.181   2.309 -23.279  0.00  0.00    +0.027 C 
ATOM      8  C   UNL     1       2.196   2.478 -24.073  0.00  0.00    +0.009 C 
ATOM      9  C   UNL     1       1.780   3.117 -25.127  0.00  0.00    +0.035 C 
ATOM     10  C   UNL     1       0.508   3.342 -24.984  0.00  0.00    +0.067 C 
ATOM     11  C   UNL     1      -0.741   3.687 -25.084  0.00  0.00    +0.041 C 
ATOM     12  C   UNL     1       0.138   2.843 -23.842  0.00  0.00    +0.030 C 
ATOM     13  C   UNL     1       2.482   1.643 -22.579  0.00  0.00    +0.041 C 
ATOM     14  C   UNL     1      -3.467   2.984 -22.467  0.00  0.00    +0.011 C 
ATOM     15  C   UNL     1      -1.082   2.901 -23.397  0.00  0.00    +0.005 C 
ENDROOT
BRANCH  10  16
ATOM     16  O   UNL     1       0.617   3.913 -26.147  0.00  0.00    -0.389 OA
ATOM     17  H   UNL     1      -0.265   4.157 -26.471  0.00  0.00    +0.210 HD
ENDBRANCH  10  16
BRANCH   6  18
ATOM     18  O   UNL     1       1.886   1.068 -21.184  0.00  0.00    -0.389 OA
ATOM     19  H   UNL     1       2.190   1.703 -20.516  0.00  0.00    +0.210 HD
ENDBRANCH   6  18
TORSDOF 2
ENDMDL
