MODEL 1
REMARK VINA RESULT:   -10.568      0.000      0.000
REMARK INTER + INTRA:         -12.414
REMARK INTER:                 -13.112
REMARK INTRA:                   0.698
REMARK UNBOUND:                 0.934
REMARK  Name = COCO[C@@H]1C=C2[C@H]3Cc4ccc(OC)c5c4[C@@]2(CCN3C)[C@](C)(O5)[C@H]1O   ZINC000253505466
REMARK  9 active torsions:
REMARK  status: ('A' for Active; 'I' for Inactive)
REMARK    1  A    between atoms: C_1  and  O_2
REMARK    2  A    between atoms: O_2  and  C_3
REMARK    3  A    between atoms: C_3  and  O_4
REMARK    4  A    between atoms: O_4  and  C_5
REMARK    5  A    between atoms: C_13  and  O_14
REMARK    6  A    between atoms: O_14  and  C_15
REMARK    7  A    between atoms: N_21  and  C_22
REMARK    8  A    between atoms: C_23  and  C_24
REMARK    9  A    between atoms: C_26  and  O_27
REMARK                            x       y       z     vdW  Elec       q    Type
REMARK                         _______ _______ _______ _____ _____    ______ ____
ROOT
ATOM      1  C   UNL     1       0.956   2.198 -22.660  0.00  0.00    +0.176 C 
ATOM      2  C   UNL     1       0.583   2.716 -23.745  0.00  0.00    +0.013 C 
ATOM      3  C   UNL     1      -0.637   3.027 -23.916  0.00  0.00    -0.009 C 
ATOM      4  C   UNL     1      -1.006   3.550 -25.015  0.00  0.00    +0.096 C 
ATOM      5  C   UNL     1      -2.213   3.859 -25.186  0.00  0.00    +0.094 C 
ATOM      6  C   UNL     1      -3.065   3.646 -24.256  0.00  0.00    -0.034 A 
ATOM      7  C   UNL     1      -4.275   3.955 -24.427  0.00  0.00    +0.008 A 
ATOM      8  C   UNL     1      -5.110   3.745 -23.511  0.00  0.00    +0.050 A 
ATOM      9  C   UNL     1      -4.744   3.222 -22.412  0.00  0.00    +0.162 A 
ATOM     10  C   UNL     1      -3.521   2.911 -22.242  0.00  0.00    +0.167 A 
ATOM     11  O   UNL     1      -2.490   2.325 -21.310  0.00  0.00    -0.478 OA
ATOM     12  C   UNL     1      -1.092   2.291 -21.900  0.00  0.00    +0.150 C 
ATOM     13  C   UNL     1      -1.006   1.800 -20.744  0.00  0.00    +0.060 C 
ATOM     14  C   UNL     1      -2.680   3.124 -23.169  0.00  0.00    +0.016 A 
ATOM     15  N   UNL     1       0.388   3.237 -24.923  0.00  0.00    +0.239 N 
ATOM     16  H   UNL     1       1.039   3.421 -25.686  0.00  0.00    +0.204 HD
ATOM     17  C   UNL     1       1.178   3.470 -25.872  0.00  0.00    +0.191 C 
ATOM     18  C   UNL     1       0.835   2.653 -23.711  0.00  0.00    +0.133 C 
ATOM     19  C   UNL     1      -0.131   2.427 -22.697  0.00  0.00    +0.071 C 
ATOM     20  C   UNL     1      -1.474   2.818 -23.001  0.00  0.00    +0.072 C 
ATOM     21  C   UNL     1       0.115   1.984 -21.732  0.00  0.00    +0.192 C 
ENDROOT
BRANCH   9  22
ATOM     22  O   UNL     1      -5.583   3.013 -21.499  0.00  0.00    -0.491 OA
ATOM     23  C   UNL     1      -6.739   2.609 -21.784  0.00  0.00    +0.277 C 
ENDBRANCH   9  22
BRANCH  21  24
ATOM     24  O   UNL     1       0.491   1.465 -20.648  0.00  0.00    -0.385 OA
ATOM     25  H   UNL     1      -0.123   1.716 -19.941  0.00  0.00    +0.210 HD
ENDBRANCH  21  24
BRANCH   1  26
ATOM     26  O   UNL     1       2.165   1.891 -22.495  0.00  0.00    -0.344 OA
BRANCH  26  27
ATOM     27  C   UNL     1       2.567   0.731 -22.774  0.00  0.00    +0.323 C 
BRANCH  27  29
ATOM     28  C   UNL     1       3.813   0.408 -21.014  0.00  0.00    +0.196 C 
ATOM     29  O   UNL     1       2.989  -0.025 -21.860  0.00  0.00    -0.357 OA
ENDBRANCH  27  29
ENDBRANCH  26  27
ENDBRANCH   1  26
TORSDOF 5
ENDMDL
MODEL 2
REMARK VINA RESULT:   -10.205      1.927      3.209
REMARK INTER + INTRA:         -11.955
REMARK INTER:                 -12.783
REMARK INTRA:                   0.828
REMARK UNBOUND:                 0.934
REMARK  Name = COCO[C@@H]1C=C2[C@H]3Cc4ccc(OC)c5c4[C@@]2(CCN3C)[C@](C)(O5)[C@H]1O   ZINC000253505466
REMARK  9 active torsions:
REMARK  status: ('A' for Active; 'I' for Inactive)
REMARK    1  A    between atoms: C_1  and  O_2
REMARK    2  A    between atoms: O_2  and  C_3
REMARK    3  A    between atoms: C_3  and  O_4
REMARK    4  A    between atoms: O_4  and  C_5
REMARK    5  A    between atoms: C_13  and  O_14
REMARK    6  A    between atoms: O_14  and  C_15
REMARK    7  A    between atoms: N_21  and  C_22
REMARK    8  A    between atoms: C_23  and  C_24
REMARK    9  A    between atoms: C_26  and  O_27
REMARK                            x       y       z     vdW  Elec       q    Type
REMARK                         _______ _______ _______ _____ _____    ______ ____
ROOT
ATOM      1  C   UNL     1       1.720   2.667 -24.028  0.00  0.00    +0.176 C 
ATOM      2  C   UNL     1       1.381   2.258 -22.887  0.00  0.00    +0.013 C 
ATOM      3  C   UNL     1       0.169   2.340 -22.515  0.00  0.00    -0.009 C 
ATOM      4  C   UNL     1      -0.167   1.925 -21.361  0.00  0.00    +0.096 C 
ATOM      5  C   UNL     1      -1.365   2.006 -20.991  0.00  0.00    +0.094 C 
ATOM      6  C   UNL     1      -2.243   2.505 -21.775  0.00  0.00    -0.034 A 
ATOM      7  C   UNL     1      -3.446   2.587 -21.405  0.00  0.00    +0.008 A 
ATOM      8  C   UNL     1      -4.307   3.078 -22.179  0.00  0.00    +0.050 A 
ATOM      9  C   UNL     1      -3.975   3.494 -23.333  0.00  0.00    +0.162 A 
ATOM     10  C   UNL     1      -2.759   3.410 -23.704  0.00  0.00    +0.167 A 
ATOM     11  O   UNL     1      -1.758   3.671 -24.802  0.00  0.00    -0.478 OA
ATOM     12  C   UNL     1      -0.346   3.246 -24.446  0.00  0.00    +0.150 C 
ATOM     13  C   UNL     1      -0.295   3.721 -25.610  0.00  0.00    +0.060 C 
ATOM     14  C   UNL     1      -1.892   2.914 -22.921  0.00  0.00    +0.016 A 
ATOM     15  N   UNL     1       1.222   1.787 -21.682  0.00  0.00    +0.239 N 
ATOM     16  H   UNL     1       1.895   1.383 -21.031  0.00  0.00    +0.204 HD
ATOM     17  C   UNL     1       2.039   1.288 -20.868  0.00  0.00    +0.191 C 
ATOM     18  C   UNL     1       1.631   2.240 -22.961  0.00  0.00    +0.133 C 
ATOM     19  C   UNL     1       0.637   2.789 -23.812  0.00  0.00    +0.071 C 
ATOM     20  C   UNL     1      -0.694   2.831 -23.287  0.00  0.00    +0.072 C 
ATOM     21  C   UNL     1       0.854   3.163 -24.812  0.00  0.00    +0.192 C 
ENDROOT
BRANCH   9  22
ATOM     22  O   UNL     1      -4.839   3.984 -24.103  0.00  0.00    -0.491 OA
ATOM     23  C   UNL     1      -4.859   3.658 -25.317  0.00  0.00    +0.277 C 
ENDBRANCH   9  22
BRANCH  21  24
ATOM     24  O   UNL     1       1.196   3.572 -25.953  0.00  0.00    -0.385 OA
ATOM     25  H   UNL     1       1.604   4.448 -25.873  0.00  0.00    +0.210 HD
ENDBRANCH  21  24
BRANCH   1  26
ATOM     26  O   UNL     1       2.922   2.583 -24.392  0.00  0.00    -0.344 OA
BRANCH  26  27
ATOM     27  C   UNL     1       3.814   3.228 -23.780  0.00  0.00    +0.323 C 
BRANCH  27  29
ATOM     28  C   UNL     1       5.334   2.372 -22.472  0.00  0.00    +0.196 C 
ATOM     29  O   UNL     1       4.957   2.724 -23.619  0.00  0.00    -0.357 OA
ENDBRANCH  27  29
ENDBRANCH  26  27
ENDBRANCH   1  26
TORSDOF 5
ENDMDL
MODEL 3
REMARK VINA RESULT:   -10.094      2.015      6.411
REMARK INTER + INTRA:         -11.815
REMARK INTER:                 -12.460
REMARK INTRA:                   0.645
REMARK UNBOUND:                 0.934
REMARK  Name = COCO[C@@H]1C=C2[C@H]3Cc4ccc(OC)c5c4[C@@]2(CCN3C)[C@](C)(O5)[C@H]1O   ZINC000253505466
REMARK  9 active torsions:
REMARK  status: ('A' for Active; 'I' for Inactive)
REMARK    1  A    between atoms: C_1  and  O_2
REMARK    2  A    between atoms: O_2  and  C_3
REMARK    3  A    between atoms: C_3  and  O_4
REMARK    4  A    between atoms: O_4  and  C_5
REMARK    5  A    between atoms: C_13  and  O_14
REMARK    6  A    between atoms: O_14  and  C_15
REMARK    7  A    between atoms: N_21  and  C_22
REMARK    8  A    between atoms: C_23  and  C_24
REMARK    9  A    between atoms: C_26  and  O_27
REMARK                            x       y       z     vdW  Elec       q    Type
REMARK                         _______ _______ _______ _____ _____    ______ ____
ROOT
ATOM      1  C   UNL     1      -1.410   3.291 -24.436  0.00  0.00    +0.176 C 
ATOM      2  C   UNL     1      -1.572   2.818 -23.281  0.00  0.00    +0.013 C 
ATOM      3  C   UNL     1      -0.570   2.423 -22.608  0.00  0.00    -0.009 C 
ATOM      4  C   UNL     1      -0.741   1.946 -21.442  0.00  0.00    +0.096 C 
ATOM      5  C   UNL     1       0.250   1.555 -20.775  0.00  0.00    +0.094 C 
ATOM      6  C   UNL     1       1.426   1.636 -21.270  0.00  0.00    -0.034 A 
ATOM      7  C   UNL     1       2.421   1.243 -20.601  0.00  0.00    +0.008 A 
ATOM      8  C   UNL     1       3.575   1.325 -21.091  0.00  0.00    +0.050 A 
ATOM      9  C   UNL     1       3.750   1.801 -22.256  0.00  0.00    +0.162 A 
ATOM     10  C   UNL     1       2.744   2.197 -22.930  0.00  0.00    +0.167 A 
ATOM     11  O   UNL     1       2.253   2.799 -24.222  0.00  0.00    -0.478 OA
ATOM     12  C   UNL     1       0.749   2.984 -24.271  0.00  0.00    +0.150 C 
ATOM     13  C   UNL     1       1.196   3.402 -25.370  0.00  0.00    +0.060 C 
ATOM     14  C   UNL     1       1.579   2.113 -22.433  0.00  0.00    +0.016 A 
ATOM     15  N   UNL     1      -1.934   2.363 -22.115  0.00  0.00    +0.239 N 
ATOM     16  H   UNL     1      -2.857   2.283 -21.689  0.00  0.00    +0.204 HD
ATOM     17  C   UNL     1      -3.064   2.257 -21.576  0.00  0.00    +0.191 C 
ATOM     18  C   UNL     1      -1.780   2.899 -23.418  0.00  0.00    +0.133 C 
ATOM     19  C   UNL     1      -0.465   2.978 -23.944  0.00  0.00    +0.071 C 
ATOM     20  C   UNL     1       0.587   2.503 -23.096  0.00  0.00    +0.072 C 
ATOM     21  C   UNL     1      -0.245   3.375 -24.934  0.00  0.00    +0.192 C 
ENDROOT
BRANCH   9  22
ATOM     22  O   UNL     1       4.907   1.880 -22.742  0.00  0.00    -0.491 OA
ATOM     23  C   UNL     1       5.737   2.694 -22.263  0.00  0.00    +0.277 C 
ENDBRANCH   9  22
BRANCH  21  24
ATOM     24  O   UNL     1      -0.085   3.848 -26.090  0.00  0.00    -0.385 OA
ATOM     25  H   UNL     1       0.792   3.603 -26.421  0.00  0.00    +0.210 HD
ENDBRANCH  21  24
BRANCH   1  26
ATOM     26  O   UNL     1      -2.406   3.681 -25.099  0.00  0.00    -0.344 OA
BRANCH  26  27
ATOM     27  C   UNL     1      -3.096   4.652 -24.690  0.00  0.00    +0.323 C 
BRANCH  27  29
ATOM     28  C   UNL     1      -5.183   4.116 -24.355  0.00  0.00    +0.196 C 
ATOM     29  O   UNL     1      -4.310   4.741 -25.011  0.00  0.00    -0.357 OA
ENDBRANCH  27  29
ENDBRANCH  26  27
ENDBRANCH   1  26
TORSDOF 5
ENDMDL
MODEL 4
REMARK VINA RESULT:    -9.645      1.240      5.595
REMARK INTER + INTRA:         -11.248
REMARK INTER:                 -11.939
REMARK INTRA:                   0.690
REMARK UNBOUND:                 0.934
REMARK  Name = COCO[C@@H]1C=C2[C@H]3Cc4ccc(OC)c5c4[C@@]2(CCN3C)[C@](C)(O5)[C@H]1O   ZINC000253505466
REMARK  9 active torsions:
REMARK  status: ('A' for Active; 'I' for Inactive)
REMARK    1  A    between atoms: C_1  and  O_2
REMARK    2  A    between atoms: O_2  and  C_3
REMARK    3  A    between atoms: C_3  and  O_4
REMARK    4  A    between atoms: O_4  and  C_5
REMARK    5  A    between atoms: C_13  and  O_14
REMARK    6  A    between atoms: O_14  and  C_15
REMARK    7  A    between atoms: N_21  and  C_22
REMARK    8  A    between atoms: C_23  and  C_24
REMARK    9  A    between atoms: C_26  and  O_27
REMARK                            x       y       z     vdW  Elec       q    Type
REMARK                         _______ _______ _______ _____ _____    ______ ____
ROOT
ATOM      1  C   UNL     1      -2.566   2.610 -23.163  0.00  0.00    +0.176 C 
ATOM      2  C   UNL     1      -1.981   2.929 -24.231  0.00  0.00    +0.013 C 
ATOM      3  C   UNL     1      -0.712   2.918 -24.289  0.00  0.00    -0.009 C 
ATOM      4  C   UNL     1      -0.126   3.241 -25.371  0.00  0.00    +0.096 C 
ATOM      5  C   UNL     1       1.129   3.232 -25.430  0.00  0.00    +0.094 C 
ATOM      6  C   UNL     1       1.815   2.898 -24.403  0.00  0.00    -0.034 A 
ATOM      7  C   UNL     1       3.074   2.888 -24.461  0.00  0.00    +0.008 A 
ATOM      8  C   UNL     1       3.745   2.559 -23.450  0.00  0.00    +0.050 A 
ATOM      9  C   UNL     1       3.163   2.236 -22.367  0.00  0.00    +0.162 A 
ATOM     10  C   UNL     1       1.891   2.247 -22.311  0.00  0.00    +0.167 A 
ATOM     11  O   UNL     1       0.667   2.010 -21.462  0.00  0.00    -0.478 OA
ATOM     12  C   UNL     1      -0.636   2.267 -22.194  0.00  0.00    +0.150 C 
ATOM     13  C   UNL     1      -0.945   1.911 -21.028  0.00  0.00    +0.060 C 
ATOM     14  C   UNL     1       1.216   2.579 -23.334  0.00  0.00    +0.016 A 
ATOM     15  N   UNL     1      -1.557   3.285 -25.410  0.00  0.00    +0.239 N 
ATOM     16  H   UNL     1      -2.071   3.557 -26.248  0.00  0.00    +0.204 HD
ATOM     17  C   UNL     1      -2.176   3.622 -26.451  0.00  0.00    +0.191 C 
ATOM     18  C   UNL     1      -2.242   2.931 -24.221  0.00  0.00    +0.133 C 
ATOM     19  C   UNL     1      -1.458   2.565 -23.097  0.00  0.00    +0.071 C 
ATOM     20  C   UNL     1      -0.038   2.590 -23.278  0.00  0.00    +0.072 C 
ATOM     21  C   UNL     1      -1.892   2.278 -22.140  0.00  0.00    +0.192 C 
ENDROOT
BRANCH   9  22
ATOM     22  O   UNL     1       3.838   1.908 -21.359  0.00  0.00    -0.491 OA
ATOM     23  C   UNL     1       3.897   0.703 -21.004  0.00  0.00    +0.277 C 
ENDBRANCH   9  22
BRANCH  21  24
ATOM     24  O   UNL     1      -2.480   1.960 -21.073  0.00  0.00    -0.385 OA
ATOM     25  H   UNL     1      -2.592   2.747 -20.519  0.00  0.00    +0.210 HD
ENDBRANCH  21  24
BRANCH   1  26
ATOM     26  O   UNL     1      -3.823   2.622 -23.111  0.00  0.00    -0.344 OA
BRANCH  26  27
ATOM     27  C   UNL     1      -4.444   3.717 -23.074  0.00  0.00    +0.323 C 
BRANCH  27  29
ATOM     28  C   UNL     1      -5.920   2.853 -21.720  0.00  0.00    +0.196 C 
ATOM     29  O   UNL     1      -5.540   3.799 -22.458  0.00  0.00    -0.357 OA
ENDBRANCH  27  29
ENDBRANCH  26  27
ENDBRANCH   1  26
TORSDOF 5
ENDMDL
MODEL 5
REMARK VINA RESULT:    -9.312      1.364      2.170
REMARK INTER + INTRA:         -10.827
REMARK INTER:                 -11.665
REMARK INTRA:                   0.838
REMARK UNBOUND:                 0.934
REMARK  Name = COCO[C@@H]1C=C2[C@H]3Cc4ccc(OC)c5c4[C@@]2(CCN3C)[C@](C)(O5)[C@H]1O   ZINC000253505466
REMARK  9 active torsions:
REMARK  status: ('A' for Active; 'I' for Inactive)
REMARK    1  A    between atoms: C_1  and  O_2
REMARK    2  A    between atoms: O_2  and  C_3
REMARK    3  A    between atoms: C_3  and  O_4
REMARK    4  A    between atoms: O_4  and  C_5
REMARK    5  A    between atoms: C_13  and  O_14
REMARK    6  A    between atoms: O_14  and  C_15
REMARK    7  A    between atoms: N_21  and  C_22
REMARK    8  A    between atoms: C_23  and  C_24
REMARK    9  A    between atoms: C_26  and  O_27
REMARK                            x       y       z     vdW  Elec       q    Type
REMARK                         _______ _______ _______ _____ _____    ______ ____
ROOT
ATOM      1  C   UNL     1       1.913   1.692 -21.695  0.00  0.00    +0.176 C 
ATOM      2  C   UNL     1       2.182   2.150 -22.836  0.00  0.00    +0.013 C 
ATOM      3  C   UNL     1       1.248   2.543 -23.602  0.00  0.00    -0.009 C 
ATOM      4  C   UNL     1       1.527   3.004 -24.754  0.00  0.00    +0.096 C 
ATOM      5  C   UNL     1       0.604   3.393 -25.513  0.00  0.00    +0.094 C 
ATOM      6  C   UNL     1      -0.613   3.324 -25.125  0.00  0.00    -0.034 A 
ATOM      7  C   UNL     1      -1.540   3.714 -25.886  0.00  0.00    +0.008 A 
ATOM      8  C   UNL     1      -2.735   3.644 -25.502  0.00  0.00    +0.050 A 
ATOM      9  C   UNL     1      -3.018   3.184 -24.352  0.00  0.00    +0.162 A 
ATOM     10  C   UNL     1      -2.080   2.791 -23.586  0.00  0.00    +0.167 A 
ATOM     11  O   UNL     1      -1.713   2.202 -22.247  0.00  0.00    -0.478 OA
ATOM     12  C   UNL     1      -0.220   2.009 -22.060  0.00  0.00    +0.150 C 
ATOM     13  C   UNL     1      -0.768   1.607 -21.001  0.00  0.00    +0.060 C 
ATOM     14  C   UNL     1      -0.874   2.862 -23.976  0.00  0.00    +0.016 A 
ATOM     15  N   UNL     1       2.651   2.589 -23.970  0.00  0.00    +0.239 N 
ATOM     16  H   UNL     1       3.609   2.659 -24.312  0.00  0.00    +0.204 HD
ATOM     17  C   UNL     1       3.826   2.681 -24.406  0.00  0.00    +0.191 C 
ATOM     18  C   UNL     1       2.376   2.070 -22.680  0.00  0.00    +0.133 C 
ATOM     19  C   UNL     1       1.018   2.004 -22.275  0.00  0.00    +0.071 C 
ATOM     20  C   UNL     1       0.051   2.474 -23.220  0.00  0.00    +0.072 C 
ATOM     21  C   UNL     1       0.707   1.621 -21.304  0.00  0.00    +0.192 C 
ENDROOT
BRANCH   9  22
ATOM     22  O   UNL     1      -4.215   3.117 -23.972  0.00  0.00    -0.491 OA
ATOM     23  C   UNL     1      -5.044   3.987 -24.343  0.00  0.00    +0.277 C 
ENDBRANCH   9  22
BRANCH  21  24
ATOM     24  O   UNL     1       0.440   1.163 -20.162  0.00  0.00    -0.385 OA
ATOM     25  H   UNL     1       0.110   1.878 -19.597  0.00  0.00    +0.210 HD
ENDBRANCH  21  24
BRANCH   1  26
ATOM     26  O   UNL     1       2.842   1.305 -20.940  0.00  0.00    -0.344 OA
BRANCH  26  27
ATOM     27  C   UNL     1       3.620   0.388 -21.315  0.00  0.00    +0.323 C 
BRANCH  27  29
ATOM     28  C   UNL     1       5.332   1.569 -20.660  0.00  0.00    +0.196 C 
ATOM     29  O   UNL     1       4.866   0.535 -21.203  0.00  0.00    -0.357 OA
ENDBRANCH  27  29
ENDBRANCH  26  27
ENDBRANCH   1  26
TORSDOF 5
ENDMDL
MODEL 6
REMARK VINA RESULT:    -8.858      2.581      6.940
REMARK INTER + INTRA:         -10.254
REMARK INTER:                 -10.901
REMARK INTRA:                   0.647
REMARK UNBOUND:                 0.934
REMARK  Name = COCO[C@@H]1C=C2[C@H]3Cc4ccc(OC)c5c4[C@@]2(CCN3C)[C@](C)(O5)[C@H]1O   ZINC000253505466
REMARK  9 active torsions:
REMARK  status: ('A' for Active; 'I' for Inactive)
REMARK    1  A    between atoms: C_1  and  O_2
REMARK    2  A    between atoms: O_2  and  C_3
REMARK    3  A    between atoms: C_3  and  O_4
REMARK    4  A    between atoms: O_4  and  C_5
REMARK    5  A    between atoms: C_13  and  O_14
REMARK    6  A    between atoms: O_14  and  C_15
REMARK    7  A    between atoms: N_21  and  C_22
REMARK    8  A    between atoms: C_23  and  C_24
REMARK    9  A    between atoms: C_26  and  O_27
REMARK                            x       y       z     vdW  Elec       q    Type
REMARK                         _______ _______ _______ _____ _____    ______ ____
ROOT
ATOM      1  C   UNL     1       0.227   4.127 -23.046  0.00  0.00    +0.176 C 
ATOM      2  C   UNL     1       0.268   2.931 -22.656  0.00  0.00    +0.013 C 
ATOM      3  C   UNL     1       1.386   2.369 -22.439  0.00  0.00    -0.009 C 
ATOM      4  C   UNL     1       1.420   1.161 -22.045  0.00  0.00    +0.096 C 
ATOM      5  C   UNL     1       2.526   0.603 -21.830  0.00  0.00    +0.094 C 
ATOM      6  C   UNL     1       3.614   1.252 -22.008  0.00  0.00    -0.034 A 
ATOM      7  C   UNL     1       4.724   0.694 -21.793  0.00  0.00    +0.008 A 
ATOM      8  C   UNL     1       5.791   1.335 -21.968  0.00  0.00    +0.050 A 
ATOM      9  C   UNL     1       5.761   2.543 -22.362  0.00  0.00    +0.162 A 
ATOM     10  C   UNL     1       4.638   3.104 -22.579  0.00  0.00    +0.167 A 
ATOM     11  O   UNL     1       3.922   4.360 -23.009  0.00  0.00    -0.478 OA
ATOM     12  C   UNL     1       2.411   4.224 -23.011  0.00  0.00    +0.150 C 
ATOM     13  C   UNL     1       2.666   5.398 -23.385  0.00  0.00    +0.060 C 
ATOM     14  C   UNL     1       3.563   2.455 -22.401  0.00  0.00    +0.016 A 
ATOM     15  N   UNL     1       0.111   1.699 -22.260  0.00  0.00    +0.239 N 
ATOM     16  H   UNL     1      -0.735   1.151 -22.108  0.00  0.00    +0.204 HD
ATOM     17  C   UNL     1      -0.922   1.011 -22.068  0.00  0.00    +0.191 C 
ATOM     18  C   UNL     1       0.037   3.045 -22.700  0.00  0.00    +0.133 C 
ATOM     19  C   UNL     1       1.258   3.741 -22.889  0.00  0.00    +0.071 C 
ATOM     20  C   UNL     1       2.456   3.008 -22.614  0.00  0.00    +0.072 C 
ATOM     21  C   UNL     1       1.303   4.777 -23.224  0.00  0.00    +0.192 C 
ENDROOT
BRANCH   9  22
ATOM     22  O   UNL     1       6.831   3.179 -22.536  0.00  0.00    -0.491 OA
ATOM     23  C   UNL     1       7.177   4.068 -21.716  0.00  0.00    +0.277 C 
ENDBRANCH   9  22
BRANCH  21  24
ATOM     24  O   UNL     1       1.260   5.974 -23.615  0.00  0.00    -0.385 OA
ATOM     25  H   UNL     1       0.714   6.493 -23.004  0.00  0.00    +0.210 HD
ENDBRANCH  21  24
BRANCH   1  26
ATOM     26  O   UNL     1      -0.883   4.679 -23.259  0.00  0.00    -0.344 OA
BRANCH  26  27
ATOM     27  C   UNL     1      -1.640   4.246 -24.168  0.00  0.00    +0.323 C 
BRANCH  27  29
ATOM     28  C   UNL     1      -3.564   3.408 -23.578  0.00  0.00    +0.196 C 
ATOM     29  O   UNL     1      -2.889   4.357 -24.053  0.00  0.00    -0.357 OA
ENDBRANCH  27  29
ENDBRANCH  26  27
ENDBRANCH   1  26
TORSDOF 5
ENDMDL
MODEL 7
REMARK VINA RESULT:    -8.472      2.560      3.553
REMARK INTER + INTRA:          -9.766
REMARK INTER:                 -10.819
REMARK INTRA:                   1.053
REMARK UNBOUND:                 0.934
REMARK  Name = COCO[C@@H]1C=C2[C@H]3Cc4ccc(OC)c5c4[C@@]2(CCN3C)[C@](C)(O5)[C@H]1O   ZINC000253505466
REMARK  9 active torsions:
REMARK  status: ('A' for Active; 'I' for Inactive)
REMARK    1  A    between atoms: C_1  and  O_2
REMARK    2  A    between atoms: O_2  and  C_3
REMARK    3  A    between atoms: C_3  and  O_4
REMARK    4  A    between atoms: O_4  and  C_5
REMARK    5  A    between atoms: C_13  and  O_14
REMARK    6  A    between atoms: O_14  and  C_15
REMARK    7  A    between atoms: N_21  and  C_22
REMARK    8  A    between atoms: C_23  and  C_24
REMARK    9  A    between atoms: C_26  and  O_27
REMARK                            x       y       z     vdW  Elec       q    Type
REMARK                         _______ _______ _______ _____ _____    ______ ____
ROOT
ATOM      1  C   UNL     1       3.813   2.108 -22.281  0.00  0.00    +0.176 C 
ATOM      2  C   UNL     1       3.696   3.323 -22.585  0.00  0.00    +0.013 C 
ATOM      3  C   UNL     1       2.554   3.804 -22.864  0.00  0.00    -0.009 C 
ATOM      4  C   UNL     1       2.444   5.033 -23.170  0.00  0.00    +0.096 C 
ATOM      5  C   UNL     1       1.314   5.510 -23.447  0.00  0.00    +0.094 C 
ATOM      6  C   UNL     1       0.280   4.758 -23.421  0.00  0.00    -0.034 A 
ATOM      7  C   UNL     1      -0.854   5.236 -23.698  0.00  0.00    +0.008 A 
ATOM      8  C   UNL     1      -1.869   4.494 -23.671  0.00  0.00    +0.050 A 
ATOM      9  C   UNL     1      -1.762   3.266 -23.366  0.00  0.00    +0.162 A 
ATOM     10  C   UNL     1      -0.616   2.786 -23.086  0.00  0.00    +0.167 A 
ATOM     11  O   UNL     1       0.173   1.565 -22.683  0.00  0.00    -0.478 OA
ATOM     12  C   UNL     1       1.659   1.828 -22.529  0.00  0.00    +0.150 C 
ATOM     13  C   UNL     1       1.482   0.610 -22.268  0.00  0.00    +0.060 C 
ATOM     14  C   UNL     1       0.407   3.537 -23.114  0.00  0.00    +0.016 A 
ATOM     15  N   UNL     1       3.773   4.592 -22.873  0.00  0.00    +0.239 N 
ATOM     16  H   UNL     1       4.576   5.220 -22.904  0.00  0.00    +0.204 HD
ATOM     17  C   UNL     1       4.752   5.379 -22.915  0.00  0.00    +0.191 C 
ATOM     18  C   UNL     1       3.933   3.226 -22.527  0.00  0.00    +0.133 C 
ATOM     19  C   UNL     1       2.769   2.415 -22.506  0.00  0.00    +0.071 C 
ATOM     20  C   UNL     1       1.537   3.064 -22.838  0.00  0.00    +0.072 C 
ATOM     21  C   UNL     1       2.790   1.355 -22.253  0.00  0.00    +0.192 C 
ENDROOT
BRANCH   9  22
ATOM     22  O   UNL     1      -2.780   2.528 -23.340  0.00  0.00    -0.491 OA
ATOM     23  C   UNL     1      -3.881   2.986 -22.941  0.00  0.00    +0.277 C 
ENDBRANCH   9  22
BRANCH  21  24
ATOM     24  O   UNL     1       2.909   0.140 -21.949  0.00  0.00    -0.385 OA
ATOM     25  H   UNL     1       2.470  -0.026 -21.100  0.00  0.00    +0.210 HD
ENDBRANCH  21  24
BRANCH   1  26
ATOM     26  O   UNL     1       4.947   1.637 -22.005  0.00  0.00    -0.344 OA
BRANCH  26  27
ATOM     27  C   UNL     1       5.910   1.802 -22.798  0.00  0.00    +0.323 C 
BRANCH  27  29
ATOM     28  C   UNL     1       7.589   3.077 -23.353  0.00  0.00    +0.196 C 
ATOM     29  O   UNL     1       6.880   2.534 -22.468  0.00  0.00    -0.357 OA
ENDBRANCH  27  29
ENDBRANCH  26  27
ENDBRANCH   1  26
TORSDOF 5
ENDMDL
MODEL 8
REMARK VINA RESULT:    -8.130      3.678      7.331
REMARK INTER + INTRA:          -9.334
REMARK INTER:                  -9.943
REMARK INTRA:                   0.609
REMARK UNBOUND:                 0.934
REMARK  Name = COCO[C@@H]1C=C2[C@H]3Cc4ccc(OC)c5c4[C@@]2(CCN3C)[C@](C)(O5)[C@H]1O   ZINC000253505466
REMARK  9 active torsions:
REMARK  status: ('A' for Active; 'I' for Inactive)
REMARK    1  A    between atoms: C_1  and  O_2
REMARK    2  A    between atoms: O_2  and  C_3
REMARK    3  A    between atoms: C_3  and  O_4
REMARK    4  A    between atoms: O_4  and  C_5
REMARK    5  A    between atoms: C_13  and  O_14
REMARK    6  A    between atoms: O_14  and  C_15
REMARK    7  A    between atoms: N_21  and  C_22
REMARK    8  A    between atoms: C_23  and  C_24
REMARK    9  A    between atoms: C_26  and  O_27
REMARK                            x       y       z     vdW  Elec       q    Type
REMARK                         _______ _______ _______ _____ _____    ______ ____
ROOT
ATOM      1  C   UNL     1       1.259   3.253 -23.396  0.00  0.00    +0.176 C 
ATOM      2  C   UNL     1       2.090   2.331 -23.188  0.00  0.00    +0.013 C 
ATOM      3  C   UNL     1       3.302   2.611 -22.934  0.00  0.00    -0.009 C 
ATOM      4  C   UNL     1       4.136   1.674 -22.725  0.00  0.00    +0.096 C 
ATOM      5  C   UNL     1       5.336   1.949 -22.474  0.00  0.00    +0.094 C 
ATOM      6  C   UNL     1       5.717   3.169 -22.429  0.00  0.00    -0.034 A 
ATOM      7  C   UNL     1       6.921   3.446 -22.177  0.00  0.00    +0.008 A 
ATOM      8  C   UNL     1       7.291   4.647 -22.134  0.00  0.00    +0.050 A 
ATOM      9  C   UNL     1       6.460   5.586 -22.343  0.00  0.00    +0.162 A 
ATOM     10  C   UNL     1       5.244   5.303 -22.598  0.00  0.00    +0.167 A 
ATOM     11  O   UNL     1       3.869   5.835 -22.912  0.00  0.00    -0.478 OA
ATOM     12  C   UNL     1       2.829   4.747 -23.103  0.00  0.00    +0.150 C 
ATOM     13  C   UNL     1       2.234   5.844 -23.266  0.00  0.00    +0.060 C 
ATOM     14  C   UNL     1       4.874   4.090 -22.640  0.00  0.00    +0.016 A 
ATOM     15  N   UNL     1       2.796   1.252 -23.002  0.00  0.00    +0.239 N 
ATOM     16  H   UNL     1       2.529   0.268 -23.029  0.00  0.00    +0.204 HD
ATOM     17  C   UNL     1       2.483   0.036 -23.032  0.00  0.00    +0.191 C 
ATOM     18  C   UNL     1       1.840   2.271 -23.240  0.00  0.00    +0.133 C 
ATOM     19  C   UNL     1       2.288   3.616 -23.185  0.00  0.00    +0.071 C 
ATOM     20  C   UNL     1       3.675   3.811 -22.891  0.00  0.00    +0.072 C 
ATOM     21  C   UNL     1       1.629   4.468 -23.354  0.00  0.00    +0.192 C 
ENDROOT
BRANCH   9  22
ATOM     22  O   UNL     1       6.835   6.785 -22.299  0.00  0.00    -0.491 OA
ATOM     23  C   UNL     1       6.651   7.466 -21.258  0.00  0.00    +0.277 C 
ENDBRANCH   9  22
BRANCH  21  24
ATOM     24  O   UNL     1       0.797   5.388 -23.562  0.00  0.00    -0.385 OA
ATOM     25  H   UNL     1       0.930   5.748 -24.453  0.00  0.00    +0.210 HD
ENDBRANCH  21  24
BRANCH   1  26
ATOM     26  O   UNL     1       0.059   2.971 -23.647  0.00  0.00    -0.344 OA
BRANCH  26  27
ATOM     27  C   UNL     1      -0.708   2.595 -22.722  0.00  0.00    +0.323 C 
BRANCH  27  29
ATOM     28  C   UNL     1      -2.295   3.060 -21.301  0.00  0.00    +0.196 C 
ATOM     29  O   UNL     1      -1.388   3.442 -22.085  0.00  0.00    -0.357 OA
ENDBRANCH  27  29
ENDBRANCH  26  27
ENDBRANCH   1  26
TORSDOF 5
ENDMDL
MODEL 9
REMARK VINA RESULT:    -8.116      3.305      7.039
REMARK INTER + INTRA:          -9.317
REMARK INTER:                 -10.251
REMARK INTRA:                   0.934
REMARK UNBOUND:                 0.934
REMARK  Name = COCO[C@@H]1C=C2[C@H]3Cc4ccc(OC)c5c4[C@@]2(CCN3C)[C@](C)(O5)[C@H]1O   ZINC000253505466
REMARK  9 active torsions:
REMARK  status: ('A' for Active; 'I' for Inactive)
REMARK    1  A    between atoms: C_1  and  O_2
REMARK    2  A    between atoms: O_2  and  C_3
REMARK    3  A    between atoms: C_3  and  O_4
REMARK    4  A    between atoms: O_4  and  C_5
REMARK    5  A    between atoms: C_13  and  O_14
REMARK    6  A    between atoms: O_14  and  C_15
REMARK    7  A    between atoms: N_21  and  C_22
REMARK    8  A    between atoms: C_23  and  C_24
REMARK    9  A    between atoms: C_26  and  O_27
REMARK                            x       y       z     vdW  Elec       q    Type
REMARK                         _______ _______ _______ _____ _____    ______ ____
ROOT
ATOM      1  C   UNL     1       1.190   2.155 -23.193  0.00  0.00    +0.176 C 
ATOM      2  C   UNL     1       1.222   3.411 -23.131  0.00  0.00    +0.013 C 
ATOM      3  C   UNL     1       2.336   4.017 -23.059  0.00  0.00    -0.009 C 
ATOM      4  C   UNL     1       2.362   5.287 -22.997  0.00  0.00    +0.096 C 
ATOM      5  C   UNL     1       3.464   5.888 -22.925  0.00  0.00    +0.094 C 
ATOM      6  C   UNL     1       4.556   5.222 -22.915  0.00  0.00    -0.034 A 
ATOM      7  C   UNL     1       5.661   5.823 -22.843  0.00  0.00    +0.008 A 
ATOM      8  C   UNL     1       6.732   5.165 -22.833  0.00  0.00    +0.050 A 
ATOM      9  C   UNL     1       6.711   3.896 -22.894  0.00  0.00    +0.162 A 
ATOM     10  C   UNL     1       5.592   3.291 -22.967  0.00  0.00    +0.167 A 
ATOM     11  O   UNL     1       4.885   1.962 -23.058  0.00  0.00    -0.478 OA
ATOM     12  C   UNL     1       3.374   2.084 -23.111  0.00  0.00    +0.150 C 
ATOM     13  C   UNL     1       3.636   0.854 -23.160  0.00  0.00    +0.060 C 
ATOM     14  C   UNL     1       4.512   3.958 -22.977  0.00  0.00    +0.016 A 
ATOM     15  N   UNL     1       1.057   4.703 -23.076  0.00  0.00    +0.239 N 
ATOM     16  H   UNL     1       0.208   5.267 -23.082  0.00  0.00    +0.204 HD
ATOM     17  C   UNL     1       0.019   5.411 -23.082  0.00  0.00    +0.191 C 
ATOM     18  C   UNL     1       0.992   3.289 -23.146  0.00  0.00    +0.133 C 
ATOM     19  C   UNL     1       2.217   2.574 -23.133  0.00  0.00    +0.071 C 
ATOM     20  C   UNL     1       3.410   3.361 -23.049  0.00  0.00    +0.072 C 
ATOM     21  C   UNL     1       2.270   1.487 -23.183  0.00  0.00    +0.192 C 
ENDROOT
BRANCH   9  22
ATOM     22  O   UNL     1       7.784   3.242 -22.884  0.00  0.00    -0.491 OA
ATOM     23  C   UNL     1       8.426   3.066 -23.951  0.00  0.00    +0.277 C 
ENDBRANCH   9  22
BRANCH  21  24
ATOM     24  O   UNL     1       2.234   0.230 -23.244  0.00  0.00    -0.385 OA
ATOM     25  H   UNL     1       2.158  -0.046 -24.171  0.00  0.00    +0.210 HD
ENDBRANCH  21  24
BRANCH   1  26
ATOM     26  O   UNL     1       0.083   1.560 -23.265  0.00  0.00    -0.344 OA
BRANCH  26  27
ATOM     27  C   UNL     1      -0.818   1.796 -22.417  0.00  0.00    +0.323 C 
BRANCH  27  29
ATOM     28  C   UNL     1      -2.260   2.490 -23.899  0.00  0.00    +0.196 C 
ATOM     29  O   UNL     1      -2.010   1.946 -22.792  0.00  0.00    -0.357 OA
ENDBRANCH  27  29
ENDBRANCH  26  27
ENDBRANCH   1  26
TORSDOF 5
ENDMDL
