MODEL 1
REMARK VINA RESULT:   -11.351      0.000      0.000
REMARK INTER + INTRA:         -16.047
REMARK INTER:                 -13.738
REMARK INTRA:                  -2.309
REMARK UNBOUND:                -0.714
REMARK  Name = ZINC000000689715
REMARK  7 active torsions:
REMARK  status: ('A' for Active; 'I' for Inactive)
REMARK    1  A    between atoms: C_1  and  C_2
REMARK    2  A    between atoms: C_9  and  O_10
REMARK    3  A    between atoms: O_10  and  C_11
REMARK    4  A    between atoms: C_11  and  C_13
REMARK    5  A    between atoms: C_19  and  O_20
REMARK    6  A    between atoms: O_20  and  C_21
REMARK    7  A    between atoms: C_21  and  C_23
REMARK                            x       y       z     vdW  Elec       q    Type
REMARK                         _______ _______ _______ _____ _____    ______ ____
ROOT
ATOM      1  C   UNL     1       3.693   1.343 -20.894  0.00  0.00    +0.045 C 
ATOM      2  C   UNL     1       3.838   2.221 -21.841  0.00  0.00    -0.033 A 
ATOM      3  C   UNL     1       4.990   2.796 -22.025  0.00  0.00    +0.096 A 
ATOM      4  C   UNL     1       5.134   3.674 -22.972  0.00  0.00    +0.337 A 
ATOM      5  O   UNL     1       4.127   3.978 -23.737  0.00  0.00    -0.422 OA
ATOM      6  C   UNL     1       2.975   3.403 -23.553  0.00  0.00    +0.143 A 
ATOM      7  C   UNL     1       1.969   3.707 -24.317  0.00  0.00    +0.097 A 
ATOM      8  C   UNL     1       0.816   3.132 -24.133  0.00  0.00    +0.178 A 
ATOM      9  C   UNL     1       0.672   2.254 -23.186  0.00  0.00    +0.175 A 
ATOM     10  C   UNL     1       1.680   1.950 -22.422  0.00  0.00    +0.062 A 
ATOM     11  O   UNL     1       6.285   4.249 -23.156  0.00  0.00    -0.245 OA
ATOM     12  C   UNL     1       2.831   2.525 -22.605  0.00  0.00    +0.024 A 
ENDROOT
BRANCH   9  13
ATOM     13  O   UNL     1      -0.479   1.680 -23.002  0.00  0.00    -0.419 OA
BRANCH  13  14
ATOM     14  C   UNL     1      -1.006   1.644 -21.814  0.00  0.00    +0.345 C 
ATOM     15  O   UNL     1      -0.487   0.884 -20.896  0.00  0.00    -0.245 OA
BRANCH  14  16
ATOM     16  C   UNL     1      -2.051   2.367 -21.544  0.00  0.00    +0.059 A 
ATOM     17  C   UNL     1      -3.236   1.949 -21.878  0.00  0.00    +0.015 A 
ATOM     18  C   UNL     1      -4.281   2.673 -21.609  0.00  0.00    +0.001 A 
ATOM     19  C   UNL     1      -4.142   3.816 -21.004  0.00  0.00    +0.000 A 
ATOM     20  C   UNL     1      -2.959   4.234 -20.670  0.00  0.00    +0.001 A 
ATOM     21  C   UNL     1      -1.912   3.510 -20.940  0.00  0.00    +0.015 A 
ENDBRANCH  14  16
ENDBRANCH  13  14
ENDBRANCH   9  13
BRANCH   8  22
ATOM     22  O   UNL     1      -0.190   3.436 -24.897  0.00  0.00    -0.418 OA
BRANCH  22  23
ATOM     23  C   UNL     1      -1.119   4.235 -24.462  0.00  0.00    +0.345 C 
ATOM     24  O   UNL     1      -0.809   5.227 -23.682  0.00  0.00    -0.245 OA
BRANCH  23  25
ATOM     25  C   UNL     1      -2.357   4.041 -24.805  0.00  0.00    +0.059 A 
ATOM     26  C   UNL     1      -2.675   3.016 -25.540  0.00  0.00    +0.015 A 
ATOM     27  C   UNL     1      -3.914   2.823 -25.884  0.00  0.00    +0.001 A 
ATOM     28  C   UNL     1      -4.834   3.653 -25.493  0.00  0.00    +0.000 A 
ATOM     29  C   UNL     1      -4.516   4.677 -24.759  0.00  0.00    +0.001 A 
ATOM     30  C   UNL     1      -3.278   4.871 -24.415  0.00  0.00    +0.015 A 
ENDBRANCH  23  25
ENDBRANCH  22  23
ENDBRANCH   8  22
TORSDOF 6
ENDMDL
MODEL 2
REMARK VINA RESULT:   -10.772      1.237      3.642
REMARK INTER + INTRA:         -15.264
REMARK INTER:                 -12.872
REMARK INTRA:                  -2.392
REMARK UNBOUND:                -0.714
REMARK  Name = ZINC000000689715
REMARK  7 active torsions:
REMARK  status: ('A' for Active; 'I' for Inactive)
REMARK    1  A    between atoms: C_1  and  C_2
REMARK    2  A    between atoms: C_9  and  O_10
REMARK    3  A    between atoms: O_10  and  C_11
REMARK    4  A    between atoms: C_11  and  C_13
REMARK    5  A    between atoms: C_19  and  O_20
REMARK    6  A    between atoms: O_20  and  C_21
REMARK    7  A    between atoms: C_21  and  C_23
REMARK                            x       y       z     vdW  Elec       q    Type
REMARK                         _______ _______ _______ _____ _____    ______ ____
ROOT
ATOM      1  C   UNL     1       4.807   4.470 -23.249  0.00  0.00    +0.045 C 
ATOM      2  C   UNL     1       4.500   3.257 -22.898  0.00  0.00    -0.033 A 
ATOM      3  C   UNL     1       5.437   2.421 -22.560  0.00  0.00    +0.096 A 
ATOM      4  C   UNL     1       5.130   1.207 -22.209  0.00  0.00    +0.337 A 
ATOM      5  O   UNL     1       3.885   0.830 -22.196  0.00  0.00    -0.422 OA
ATOM      6  C   UNL     1       2.949   1.665 -22.534  0.00  0.00    +0.143 A 
ATOM      7  C   UNL     1       1.705   1.288 -22.521  0.00  0.00    +0.097 A 
ATOM      8  C   UNL     1       0.768   2.124 -22.859  0.00  0.00    +0.178 A 
ATOM      9  C   UNL     1       1.075   3.337 -23.210  0.00  0.00    +0.175 A 
ATOM     10  C   UNL     1       2.320   3.715 -23.223  0.00  0.00    +0.062 A 
ATOM     11  O   UNL     1       6.066   0.372 -21.872  0.00  0.00    -0.245 OA
ATOM     12  C   UNL     1       3.256   2.879 -22.885  0.00  0.00    +0.024 A 
ENDROOT
BRANCH   9  13
ATOM     13  O   UNL     1       0.139   4.173 -23.547  0.00  0.00    -0.419 OA
BRANCH  13  14
ATOM     14  C   UNL     1      -0.386   4.115 -24.735  0.00  0.00    +0.345 C 
ATOM     15  O   UNL     1       0.378   4.149 -25.786  0.00  0.00    -0.245 OA
BRANCH  14  16
ATOM     16  C   UNL     1      -1.675   4.025 -24.872  0.00  0.00    +0.059 A 
ATOM     17  C   UNL     1      -2.456   4.867 -24.262  0.00  0.00    +0.015 A 
ATOM     18  C   UNL     1      -3.745   4.776 -24.399  0.00  0.00    +0.001 A 
ATOM     19  C   UNL     1      -4.255   3.843 -25.147  0.00  0.00    +0.000 A 
ATOM     20  C   UNL     1      -3.476   3.001 -25.756  0.00  0.00    +0.001 A 
ATOM     21  C   UNL     1      -2.185   3.091 -25.620  0.00  0.00    +0.015 A 
ENDBRANCH  14  16
ENDBRANCH  13  14
ENDBRANCH   9  13
BRANCH   8  22
ATOM     22  O   UNL     1      -0.476   1.746 -22.846  0.00  0.00    -0.418 OA
BRANCH  22  23
ATOM     23  C   UNL     1      -1.102   1.612 -21.715  0.00  0.00    +0.345 C 
ATOM     24  O   UNL     1      -0.683   0.748 -20.838  0.00  0.00    -0.245 OA
BRANCH  23  25
ATOM     25  C   UNL     1      -2.146   2.341 -21.460  0.00  0.00    +0.059 A 
ATOM     26  C   UNL     1      -3.327   1.936 -21.826  0.00  0.00    +0.015 A 
ATOM     27  C   UNL     1      -4.372   2.666 -21.571  0.00  0.00    +0.001 A 
ATOM     28  C   UNL     1      -4.238   3.800 -20.950  0.00  0.00    +0.000 A 
ATOM     29  C   UNL     1      -3.058   4.205 -20.584  0.00  0.00    +0.001 A 
ATOM     30  C   UNL     1      -2.013   3.476 -20.838  0.00  0.00    +0.015 A 
ENDBRANCH  23  25
ENDBRANCH  22  23
ENDBRANCH   8  22
TORSDOF 6
ENDMDL
MODEL 3
REMARK VINA RESULT:   -10.353      1.860      6.622
REMARK INTER + INTRA:         -14.698
REMARK INTER:                 -12.612
REMARK INTRA:                  -2.085
REMARK UNBOUND:                -0.714
REMARK  Name = ZINC000000689715
REMARK  7 active torsions:
REMARK  status: ('A' for Active; 'I' for Inactive)
REMARK    1  A    between atoms: C_1  and  C_2
REMARK    2  A    between atoms: C_9  and  O_10
REMARK    3  A    between atoms: O_10  and  C_11
REMARK    4  A    between atoms: C_11  and  C_13
REMARK    5  A    between atoms: C_19  and  O_20
REMARK    6  A    between atoms: O_20  and  C_21
REMARK    7  A    between atoms: C_21  and  C_23
REMARK                            x       y       z     vdW  Elec       q    Type
REMARK                         _______ _______ _______ _____ _____    ______ ____
ROOT
ATOM      1  C   UNL     1      -4.336   3.650 -21.348  0.00  0.00    +0.045 C 
ATOM      2  C   UNL     1      -4.143   3.568 -22.631  0.00  0.00    -0.033 A 
ATOM      3  C   UNL     1      -5.144   3.707 -23.449  0.00  0.00    +0.096 A 
ATOM      4  C   UNL     1      -4.951   3.626 -24.732  0.00  0.00    +0.337 A 
ATOM      5  O   UNL     1      -3.757   3.405 -25.197  0.00  0.00    -0.422 OA
ATOM      6  C   UNL     1      -2.756   3.266 -24.379  0.00  0.00    +0.143 A 
ATOM      7  C   UNL     1      -1.563   3.045 -24.844  0.00  0.00    +0.097 A 
ATOM      8  C   UNL     1      -0.561   2.906 -24.026  0.00  0.00    +0.178 A 
ATOM      9  C   UNL     1      -0.755   2.988 -22.743  0.00  0.00    +0.175 A 
ATOM     10  C   UNL     1      -1.949   3.209 -22.278  0.00  0.00    +0.062 A 
ATOM     11  O   UNL     1      -5.952   3.765 -25.550  0.00  0.00    -0.245 OA
ATOM     12  C   UNL     1      -2.949   3.348 -23.096  0.00  0.00    +0.024 A 
ENDROOT
BRANCH   9  13
ATOM     13  O   UNL     1       0.246   2.849 -21.925  0.00  0.00    -0.419 OA
BRANCH  13  14
ATOM     14  C   UNL     1       0.639   1.660 -21.574  0.00  0.00    +0.345 C 
ATOM     15  O   UNL     1      -0.229   0.782 -21.168  0.00  0.00    -0.245 OA
BRANCH  14  16
ATOM     16  C   UNL     1       1.899   1.350 -21.630  0.00  0.00    +0.059 A 
ATOM     17  C   UNL     1       2.342   0.595 -22.592  0.00  0.00    +0.015 A 
ATOM     18  C   UNL     1       3.603   0.285 -22.648  0.00  0.00    +0.001 A 
ATOM     19  C   UNL     1       4.422   0.728 -21.741  0.00  0.00    +0.000 A 
ATOM     20  C   UNL     1       3.980   1.482 -20.780  0.00  0.00    +0.001 A 
ATOM     21  C   UNL     1       2.719   1.793 -20.724  0.00  0.00    +0.015 A 
ENDBRANCH  14  16
ENDBRANCH  13  14
ENDBRANCH   9  13
BRANCH   8  22
ATOM     22  O   UNL     1       0.632   2.686 -24.491  0.00  0.00    -0.418 OA
BRANCH  22  23
ATOM     23  C   UNL     1       1.351   3.675 -24.930  0.00  0.00    +0.345 C 
ATOM     24  O   UNL     1       1.125   4.171 -26.110  0.00  0.00    -0.245 OA
BRANCH  23  25
ATOM     25  C   UNL     1       2.297   4.170 -24.189  0.00  0.00    +0.059 A 
ATOM     26  C   UNL     1       2.117   5.302 -23.574  0.00  0.00    +0.015 A 
ATOM     27  C   UNL     1       3.063   5.797 -22.833  0.00  0.00    +0.001 A 
ATOM     28  C   UNL     1       4.190   5.161 -22.706  0.00  0.00    +0.000 A 
ATOM     29  C   UNL     1       4.370   4.029 -23.320  0.00  0.00    +0.001 A 
ATOM     30  C   UNL     1       3.425   3.534 -24.062  0.00  0.00    +0.015 A 
ENDBRANCH  23  25
ENDBRANCH  22  23
ENDBRANCH   8  22
TORSDOF 6
ENDMDL
MODEL 4
REMARK VINA RESULT:    -8.700      1.998      4.530
REMARK INTER + INTRA:         -12.465
REMARK INTER:                 -11.091
REMARK INTRA:                  -1.374
REMARK UNBOUND:                -0.714
REMARK  Name = ZINC000000689715
REMARK  7 active torsions:
REMARK  status: ('A' for Active; 'I' for Inactive)
REMARK    1  A    between atoms: C_1  and  C_2
REMARK    2  A    between atoms: C_9  and  O_10
REMARK    3  A    between atoms: O_10  and  C_11
REMARK    4  A    between atoms: C_11  and  C_13
REMARK    5  A    between atoms: C_19  and  O_20
REMARK    6  A    between atoms: O_20  and  C_21
REMARK    7  A    between atoms: C_21  and  C_23
REMARK                            x       y       z     vdW  Elec       q    Type
REMARK                         _______ _______ _______ _____ _____    ______ ____
ROOT
ATOM      1  C   UNL     1       4.063   7.891 -22.097  0.00  0.00    +0.045 C 
ATOM      2  C   UNL     1       4.691   6.756 -22.182  0.00  0.00    -0.033 A 
ATOM      3  C   UNL     1       5.885   6.635 -21.682  0.00  0.00    +0.096 A 
ATOM      4  C   UNL     1       6.513   5.500 -21.766  0.00  0.00    +0.337 A 
ATOM      5  O   UNL     1       5.947   4.486 -22.352  0.00  0.00    -0.422 OA
ATOM      6  C   UNL     1       4.754   4.607 -22.852  0.00  0.00    +0.143 A 
ATOM      7  C   UNL     1       4.189   3.593 -23.437  0.00  0.00    +0.097 A 
ATOM      8  C   UNL     1       2.994   3.714 -23.937  0.00  0.00    +0.178 A 
ATOM      9  C   UNL     1       2.366   4.849 -23.853  0.00  0.00    +0.175 A 
ATOM     10  C   UNL     1       2.932   5.863 -23.267  0.00  0.00    +0.062 A 
ATOM     11  O   UNL     1       7.707   5.379 -21.266  0.00  0.00    -0.245 OA
ATOM     12  C   UNL     1       4.126   5.742 -22.767  0.00  0.00    +0.024 A 
ENDROOT
BRANCH   9  13
ATOM     13  O   UNL     1       1.173   4.970 -24.353  0.00  0.00    -0.419 OA
BRANCH  13  14
ATOM     14  C   UNL     1       0.130   4.836 -23.587  0.00  0.00    +0.345 C 
ATOM     15  O   UNL     1       0.173   5.243 -22.354  0.00  0.00    -0.245 OA
BRANCH  14  16
ATOM     16  C   UNL     1      -0.955   4.296 -24.056  0.00  0.00    +0.059 A 
ATOM     17  C   UNL     1      -0.973   3.813 -25.263  0.00  0.00    +0.015 A 
ATOM     18  C   UNL     1      -2.058   3.273 -25.731  0.00  0.00    +0.001 A 
ATOM     19  C   UNL     1      -3.126   3.214 -24.993  0.00  0.00    +0.000 A 
ATOM     20  C   UNL     1      -3.109   3.696 -23.786  0.00  0.00    +0.001 A 
ATOM     21  C   UNL     1      -2.023   4.237 -23.317  0.00  0.00    +0.015 A 
ENDBRANCH  14  16
ENDBRANCH  13  14
ENDBRANCH   9  13
BRANCH   8  22
ATOM     22  O   UNL     1       2.429   2.700 -24.522  0.00  0.00    -0.418 OA
BRANCH  22  23
ATOM     23  C   UNL     1       2.306   1.572 -23.890  0.00  0.00    +0.345 C 
ATOM     24  O   UNL     1       2.796   0.482 -24.403  0.00  0.00    -0.245 OA
BRANCH  23  25
ATOM     25  C   UNL     1       1.692   1.531 -22.745  0.00  0.00    +0.059 A 
ATOM     26  C   UNL     1       2.379   1.495 -21.641  0.00  0.00    +0.015 A 
ATOM     27  C   UNL     1       1.764   1.455 -20.496  0.00  0.00    +0.001 A 
ATOM     28  C   UNL     1       0.465   1.450 -20.454  0.00  0.00    +0.000 A 
ATOM     29  C   UNL     1      -0.221   1.486 -21.558  0.00  0.00    +0.001 A 
ATOM     30  C   UNL     1       0.392   1.527 -22.703  0.00  0.00    +0.015 A 
ENDBRANCH  23  25
ENDBRANCH  22  23
ENDBRANCH   8  22
TORSDOF 6
ENDMDL
MODEL 5
REMARK VINA RESULT:    -8.556      2.357      7.510
REMARK INTER + INTRA:         -12.271
REMARK INTER:                 -11.132
REMARK INTRA:                  -1.138
REMARK UNBOUND:                -0.714
REMARK  Name = ZINC000000689715
REMARK  7 active torsions:
REMARK  status: ('A' for Active; 'I' for Inactive)
REMARK    1  A    between atoms: C_1  and  C_2
REMARK    2  A    between atoms: C_9  and  O_10
REMARK    3  A    between atoms: O_10  and  C_11
REMARK    4  A    between atoms: C_11  and  C_13
REMARK    5  A    between atoms: C_19  and  O_20
REMARK    6  A    between atoms: O_20  and  C_21
REMARK    7  A    between atoms: C_21  and  C_23
REMARK                            x       y       z     vdW  Elec       q    Type
REMARK                         _______ _______ _______ _____ _____    ______ ____
ROOT
ATOM      1  C   UNL     1      -1.369   5.560 -22.339  0.00  0.00    +0.045 C 
ATOM      2  C   UNL     1      -1.339   4.741 -23.349  0.00  0.00    -0.033 A 
ATOM      3  C   UNL     1      -2.422   4.509 -24.030  0.00  0.00    +0.096 A 
ATOM      4  C   UNL     1      -2.392   3.691 -25.039  0.00  0.00    +0.337 A 
ATOM      5  O   UNL     1      -1.278   3.103 -25.367  0.00  0.00    -0.422 OA
ATOM      6  C   UNL     1      -0.196   3.335 -24.685  0.00  0.00    +0.143 A 
ATOM      7  C   UNL     1       0.916   2.748 -25.013  0.00  0.00    +0.097 A 
ATOM      8  C   UNL     1       1.999   2.980 -24.332  0.00  0.00    +0.178 A 
ATOM      9  C   UNL     1       1.969   3.799 -23.322  0.00  0.00    +0.175 A 
ATOM     10  C   UNL     1       0.856   4.386 -22.995  0.00  0.00    +0.062 A 
ATOM     11  O   UNL     1      -3.474   3.459 -25.721  0.00  0.00    -0.245 OA
ATOM     12  C   UNL     1      -0.226   4.154 -23.676  0.00  0.00    +0.024 A 
ENDROOT
BRANCH   9  13
ATOM     13  O   UNL     1       3.051   4.030 -22.641  0.00  0.00    -0.419 OA
BRANCH  13  14
ATOM     14  C   UNL     1       3.728   5.121 -22.847  0.00  0.00    +0.345 C 
ATOM     15  O   UNL     1       3.106   6.248 -23.024  0.00  0.00    -0.245 OA
BRANCH  14  16
ATOM     16  C   UNL     1       5.027   5.084 -22.876  0.00  0.00    +0.059 A 
ATOM     17  C   UNL     1       5.718   5.941 -22.186  0.00  0.00    +0.015 A 
ATOM     18  C   UNL     1       7.017   5.904 -22.215  0.00  0.00    +0.001 A 
ATOM     19  C   UNL     1       7.626   5.009 -22.935  0.00  0.00    +0.000 A 
ATOM     20  C   UNL     1       6.935   4.152 -23.625  0.00  0.00    +0.001 A 
ATOM     21  C   UNL     1       5.636   4.188 -23.596  0.00  0.00    +0.015 A 
ENDBRANCH  14  16
ENDBRANCH  13  14
ENDBRANCH   9  13
BRANCH   8  22
ATOM     22  O   UNL     1       3.112   2.392 -24.659  0.00  0.00    -0.418 OA
BRANCH  22  23
ATOM     23  C   UNL     1       3.332   1.166 -24.291  0.00  0.00    +0.345 C 
ATOM     24  O   UNL     1       3.090   0.187 -25.111  0.00  0.00    -0.245 OA
BRANCH  23  25
ATOM     25  C   UNL     1       3.794   0.917 -23.102  0.00  0.00    +0.059 A 
ATOM     26  C   UNL     1       2.986   0.531 -22.158  0.00  0.00    +0.015 A 
ATOM     27  C   UNL     1       3.449   0.283 -20.969  0.00  0.00    +0.001 A 
ATOM     28  C   UNL     1       4.718   0.420 -20.723  0.00  0.00    +0.000 A 
ATOM     29  C   UNL     1       5.525   0.805 -21.666  0.00  0.00    +0.001 A 
ATOM     30  C   UNL     1       5.064   1.054 -22.855  0.00  0.00    +0.015 A 
ENDBRANCH  23  25
ENDBRANCH  22  23
ENDBRANCH   8  22
TORSDOF 6
ENDMDL
