MODEL 1
REMARK VINA RESULT:    -9.454      0.000      0.000
REMARK INTER + INTRA:         -13.379
REMARK INTER:                 -12.741
REMARK INTRA:                  -0.638
REMARK UNBOUND:                -0.608
REMARK  Name = C=C[C@@H]1CN2CC[C@H]1C[C@H]2[C@@H](OC(=O)c1ccccc1)c1ccnc2ccccc12     ZINC000252462932
REMARK  6 active torsions:
REMARK  status: ('A' for Active; 'I' for Inactive)
REMARK    1  A    between atoms: C_2  and  C_3
REMARK    2  A    between atoms: C_10  and  C_11
REMARK    3  A    between atoms: C_11  and  O_12
REMARK    4  A    between atoms: C_11  and  C_21
REMARK    5  A    between atoms: O_12  and  C_13
REMARK    6  A    between atoms: C_13  and  C_15
REMARK                            x       y       z     vdW  Elec       q    Type
REMARK                         _______ _______ _______ _____ _____    ______ ____
ROOT
ATOM      1  C   UNL     1      -1.053   2.672 -23.807  0.00  0.00    +0.255 C 
ENDROOT
BRANCH   1   2
ATOM      2  C   UNL     1      -2.156   3.069 -24.420  0.00  0.00    +0.009 A 
ATOM      3  C   UNL     1      -2.141   3.311 -25.716  0.00  0.00    +0.028 A 
ATOM      4  C   UNL     1      -3.241   3.707 -26.330  0.00  0.00    +0.112 A 
ATOM      5  N   UNL     1      -4.357   3.860 -25.640  0.00  0.00    -0.255 NA
ATOM      6  C   UNL     1      -4.374   3.618 -24.345  0.00  0.00    +0.071 A 
ATOM      7  C   UNL     1      -5.490   3.771 -23.655  0.00  0.00    +0.028 A 
ATOM      8  C   UNL     1      -5.505   3.529 -22.360  0.00  0.00    +0.002 A 
ATOM      9  C   UNL     1      -4.405   3.133 -21.747  0.00  0.00    +0.001 A 
ATOM     10  C   UNL     1      -3.288   2.980 -22.436  0.00  0.00    +0.010 A 
ATOM     11  C   UNL     1      -3.273   3.222 -23.732  0.00  0.00    +0.007 A 
ENDBRANCH   1   2
BRANCH   1  18
ATOM     12  C   UNL     1       1.983   5.210 -23.336  0.00  0.00    +0.060 C 
ATOM     13  C   UNL     1       0.844   5.391 -22.649  0.00  0.00    +0.139 C 
ATOM     14  N   UNL     1      -0.160   4.530 -22.821  0.00  0.00    +0.241 N 
ATOM     15  H   UNL     1      -1.094   4.472 -22.416  0.00  0.00    +0.204 HD
ATOM     16  C   UNL     1       0.847   4.786 -23.111  0.00  0.00    +0.132 C 
ATOM     17  C   UNL     1       1.156   3.996 -23.863  0.00  0.00    +0.055 C 
ATOM     18  C   UNL     1      -0.047   3.513 -23.651  0.00  0.00    +0.111 C 
ATOM     19  C   UNL     1       1.087   3.337 -24.332  0.00  0.00    +0.063 C 
ATOM     20  C   UNL     1       2.091   4.176 -24.175  0.00  0.00    +0.011 C 
BRANCH  12  22
ATOM     21  C   UNL     1       4.180   5.599 -22.823  0.00  0.00    +0.004 C 
ATOM     22  C   UNL     1       2.993   6.050 -23.182  0.00  0.00    -0.026 C 
ENDBRANCH  12  22
ENDBRANCH   1  18
BRANCH   1  23
ATOM     23  O   UNL     1      -0.958   1.438 -23.352  0.00  0.00    -0.447 OA
BRANCH  23  24
ATOM     24  C   UNL     1      -0.500   1.217 -22.135  0.00  0.00    +0.340 C 
ATOM     25  O   UNL     1      -1.341   1.076 -21.129  0.00  0.00    -0.245 OA
BRANCH  24  26
ATOM     26  C   UNL     1       0.799   1.137 -21.926  0.00  0.00    +0.059 A 
ATOM     27  C   UNL     1       1.338   1.744 -20.881  0.00  0.00    +0.015 A 
ATOM     28  C   UNL     1       2.638   1.664 -20.673  0.00  0.00    +0.001 A 
ATOM     29  C   UNL     1       3.403   0.980 -21.502  0.00  0.00    +0.000 A 
ATOM     30  C   UNL     1       2.864   0.374 -22.547  0.00  0.00    +0.001 A 
ATOM     31  C   UNL     1       1.564   0.454 -22.755  0.00  0.00    +0.015 A 
ENDBRANCH  24  26
ENDBRANCH  23  24
ENDBRANCH   1  23
TORSDOF 6
ENDMDL
MODEL 2
REMARK VINA RESULT:    -8.979      1.979      6.003
REMARK INTER + INTRA:         -12.736
REMARK INTER:                 -11.391
REMARK INTRA:                  -1.345
REMARK UNBOUND:                -0.608
REMARK  Name = C=C[C@@H]1CN2CC[C@H]1C[C@H]2[C@@H](OC(=O)c1ccccc1)c1ccnc2ccccc12     ZINC000252462932
REMARK  6 active torsions:
REMARK  status: ('A' for Active; 'I' for Inactive)
REMARK    1  A    between atoms: C_2  and  C_3
REMARK    2  A    between atoms: C_10  and  C_11
REMARK    3  A    between atoms: C_11  and  O_12
REMARK    4  A    between atoms: C_11  and  C_21
REMARK    5  A    between atoms: O_12  and  C_13
REMARK    6  A    between atoms: C_13  and  C_15
REMARK                            x       y       z     vdW  Elec       q    Type
REMARK                         _______ _______ _______ _____ _____    ______ ____
ROOT
ATOM      1  C   UNL     1       0.862   3.675 -23.018  0.00  0.00    +0.255 C 
ENDROOT
BRANCH   1   2
ATOM      2  C   UNL     1       1.586   2.687 -23.518  0.00  0.00    +0.009 A 
ATOM      3  C   UNL     1       1.577   2.454 -24.816  0.00  0.00    +0.028 A 
ATOM      4  C   UNL     1       2.299   1.469 -25.318  0.00  0.00    +0.112 A 
ATOM      5  N   UNL     1       3.030   0.717 -24.514  0.00  0.00    -0.255 NA
ATOM      6  C   UNL     1       3.039   0.949 -23.217  0.00  0.00    +0.071 A 
ATOM      7  C   UNL     1       3.770   0.197 -22.414  0.00  0.00    +0.028 A 
ATOM      8  C   UNL     1       3.779   0.430 -21.117  0.00  0.00    +0.002 A 
ATOM      9  C   UNL     1       3.057   1.416 -20.615  0.00  0.00    +0.001 A 
ATOM     10  C   UNL     1       2.326   2.168 -21.419  0.00  0.00    +0.010 A 
ATOM     11  C   UNL     1       2.317   1.935 -22.716  0.00  0.00    +0.007 A 
ENDBRANCH   1   2
BRANCH   1  18
ATOM     12  C   UNL     1      -3.117   3.469 -23.106  0.00  0.00    +0.060 C 
ATOM     13  C   UNL     1      -2.461   4.188 -24.029  0.00  0.00    +0.139 C 
ATOM     14  N   UNL     1      -1.130   4.245 -23.982  0.00  0.00    +0.241 N 
ATOM     15  H   UNL     1      -0.440   4.718 -24.566  0.00  0.00    +0.204 HD
ATOM     16  C   UNL     1      -2.016   3.844 -23.517  0.00  0.00    +0.132 C 
ATOM     17  C   UNL     1      -1.647   3.228 -22.639  0.00  0.00    +0.055 C 
ATOM     18  C   UNL     1      -0.456   3.607 -23.047  0.00  0.00    +0.111 C 
ATOM     19  C   UNL     1      -1.112   2.892 -22.130  0.00  0.00    +0.063 C 
ATOM     20  C   UNL     1      -2.427   2.824 -22.159  0.00  0.00    +0.011 C 
BRANCH  12  22
ATOM     21  C   UNL     1      -5.118   3.324 -22.003  0.00  0.00    +0.004 C 
ATOM     22  C   UNL     1      -4.437   3.397 -23.131  0.00  0.00    -0.026 C 
ENDBRANCH  12  22
ENDBRANCH   1  18
BRANCH   1  23
ATOM     23  O   UNL     1       1.457   4.727 -22.490  0.00  0.00    -0.447 OA
BRANCH  23  24
ATOM     24  C   UNL     1       2.232   5.490 -23.237  0.00  0.00    +0.340 C 
ATOM     25  O   UNL     1       1.772   5.992 -24.367  0.00  0.00    -0.245 OA
BRANCH  24  26
ATOM     26  C   UNL     1       3.466   5.750 -22.853  0.00  0.00    +0.059 A 
ATOM     27  C   UNL     1       4.420   4.853 -23.043  0.00  0.00    +0.015 A 
ATOM     28  C   UNL     1       5.654   5.114 -22.659  0.00  0.00    +0.001 A 
ATOM     29  C   UNL     1       5.941   6.266 -22.085  0.00  0.00    +0.000 A 
ATOM     30  C   UNL     1       4.988   7.163 -21.894  0.00  0.00    +0.001 A 
ATOM     31  C   UNL     1       3.753   6.902 -22.279  0.00  0.00    +0.015 A 
ENDBRANCH  24  26
ENDBRANCH  23  24
ENDBRANCH   1  23
TORSDOF 6
ENDMDL
MODEL 3
REMARK VINA RESULT:    -8.887      2.262      4.546
REMARK INTER + INTRA:         -12.613
REMARK INTER:                 -12.446
REMARK INTRA:                  -0.167
REMARK UNBOUND:                -0.608
REMARK  Name = C=C[C@@H]1CN2CC[C@H]1C[C@H]2[C@@H](OC(=O)c1ccccc1)c1ccnc2ccccc12     ZINC000252462932
REMARK  6 active torsions:
REMARK  status: ('A' for Active; 'I' for Inactive)
REMARK    1  A    between atoms: C_2  and  C_3
REMARK    2  A    between atoms: C_10  and  C_11
REMARK    3  A    between atoms: C_11  and  O_12
REMARK    4  A    between atoms: C_11  and  C_21
REMARK    5  A    between atoms: O_12  and  C_13
REMARK    6  A    between atoms: C_13  and  C_15
REMARK                            x       y       z     vdW  Elec       q    Type
REMARK                         _______ _______ _______ _____ _____    ______ ____
ROOT
ATOM      1  C   UNL     1       0.200   4.057 -23.471  0.00  0.00    +0.255 C 
ENDROOT
BRANCH   1   2
ATOM      2  C   UNL     1      -0.315   3.099 -22.719  0.00  0.00    +0.009 A 
ATOM      3  C   UNL     1       0.173   1.876 -22.781  0.00  0.00    +0.028 A 
ATOM      4  C   UNL     1      -0.341   0.918 -22.031  0.00  0.00    +0.112 A 
ATOM      5  N   UNL     1      -1.346   1.190 -21.218  0.00  0.00    -0.255 NA
ATOM      6  C   UNL     1      -1.835   2.412 -21.155  0.00  0.00    +0.071 A 
ATOM      7  C   UNL     1      -2.840   2.684 -20.342  0.00  0.00    +0.028 A 
ATOM      8  C   UNL     1      -3.327   3.906 -20.281  0.00  0.00    +0.002 A 
ATOM      9  C   UNL     1      -2.814   4.864 -21.031  0.00  0.00    +0.001 A 
ATOM     10  C   UNL     1      -1.809   4.592 -21.844  0.00  0.00    +0.010 A 
ATOM     11  C   UNL     1      -1.320   3.369 -21.906  0.00  0.00    +0.007 A 
ENDBRANCH   1   2
BRANCH   1  18
ATOM     12  C   UNL     1       4.019   5.103 -23.019  0.00  0.00    +0.060 C 
ATOM     13  C   UNL     1       3.051   6.023 -22.892  0.00  0.00    +0.139 C 
ATOM     14  N   UNL     1       1.779   5.653 -23.046  0.00  0.00    +0.241 N 
ATOM     15  H   UNL     1       0.901   6.169 -22.996  0.00  0.00    +0.204 HD
ATOM     16  C   UNL     1       2.805   5.321 -23.050  0.00  0.00    +0.132 C 
ATOM     17  C   UNL     1       2.765   4.211 -23.280  0.00  0.00    +0.055 C 
ATOM     18  C   UNL     1       1.465   4.404 -23.322  0.00  0.00    +0.111 C 
ATOM     19  C   UNL     1       2.431   3.491 -23.448  0.00  0.00    +0.063 C 
ATOM     20  C   UNL     1       3.694   3.837 -23.298  0.00  0.00    +0.011 C 
BRANCH  12  22
ATOM     21  C   UNL     1       6.245   4.611 -23.226  0.00  0.00    +0.004 C 
ATOM     22  C   UNL     1       5.288   5.446 -22.870  0.00  0.00    -0.026 C 
ENDBRANCH  12  22
ENDBRANCH   1  18
BRANCH   1  23
ATOM     23  O   UNL     1      -0.549   4.666 -24.370  0.00  0.00    -0.447 OA
BRANCH  23  24
ATOM     24  C   UNL     1      -1.104   3.972 -25.345  0.00  0.00    +0.340 C 
ATOM     25  O   UNL     1      -0.345   3.384 -26.251  0.00  0.00    -0.245 OA
BRANCH  24  26
ATOM     26  C   UNL     1      -2.416   3.867 -25.414  0.00  0.00    +0.059 A 
ATOM     27  C   UNL     1      -3.182   4.688 -24.715  0.00  0.00    +0.015 A 
ATOM     28  C   UNL     1      -4.495   4.582 -24.785  0.00  0.00    +0.001 A 
ATOM     29  C   UNL     1      -5.047   3.659 -25.548  0.00  0.00    +0.000 A 
ATOM     30  C   UNL     1      -4.281   2.838 -26.247  0.00  0.00    +0.001 A 
ATOM     31  C   UNL     1      -2.968   2.944 -26.178  0.00  0.00    +0.015 A 
ENDBRANCH  24  26
ENDBRANCH  23  24
ENDBRANCH   1  23
TORSDOF 6
ENDMDL
MODEL 4
REMARK VINA RESULT:    -8.762      1.645      5.994
REMARK INTER + INTRA:         -12.444
REMARK INTER:                 -11.899
REMARK INTRA:                  -0.545
REMARK UNBOUND:                -0.608
REMARK  Name = C=C[C@@H]1CN2CC[C@H]1C[C@H]2[C@@H](OC(=O)c1ccccc1)c1ccnc2ccccc12     ZINC000252462932
REMARK  6 active torsions:
REMARK  status: ('A' for Active; 'I' for Inactive)
REMARK    1  A    between atoms: C_2  and  C_3
REMARK    2  A    between atoms: C_10  and  C_11
REMARK    3  A    between atoms: C_11  and  O_12
REMARK    4  A    between atoms: C_11  and  C_21
REMARK    5  A    between atoms: O_12  and  C_13
REMARK    6  A    between atoms: C_13  and  C_15
REMARK                            x       y       z     vdW  Elec       q    Type
REMARK                         _______ _______ _______ _____ _____    ______ ____
ROOT
ATOM      1  C   UNL     1       0.239   3.432 -22.669  0.00  0.00    +0.255 C 
ENDROOT
BRANCH   1   2
ATOM      2  C   UNL     1       1.476   3.817 -22.935  0.00  0.00    +0.009 A 
ATOM      3  C   UNL     1       1.749   5.097 -23.094  0.00  0.00    +0.028 A 
ATOM      4  C   UNL     1       2.984   5.483 -23.359  0.00  0.00    +0.112 A 
ATOM      5  N   UNL     1       3.945   4.582 -23.465  0.00  0.00    -0.255 NA
ATOM      6  C   UNL     1       3.672   3.303 -23.307  0.00  0.00    +0.071 A 
ATOM      7  C   UNL     1       4.632   2.402 -23.413  0.00  0.00    +0.028 A 
ATOM      8  C   UNL     1       4.359   1.123 -23.254  0.00  0.00    +0.002 A 
ATOM      9  C   UNL     1       3.124   0.736 -22.988  0.00  0.00    +0.001 A 
ATOM     10  C   UNL     1       2.164   1.637 -22.883  0.00  0.00    +0.010 A 
ATOM     11  C   UNL     1       2.437   2.917 -23.041  0.00  0.00    +0.007 A 
ENDBRANCH   1   2
BRANCH   1  18
ATOM     12  C   UNL     1      -2.599   3.804 -25.441  0.00  0.00    +0.060 C 
ATOM     13  C   UNL     1      -1.776   2.744 -25.461  0.00  0.00    +0.139 C 
ATOM     14  N   UNL     1      -0.832   2.638 -24.525  0.00  0.00    +0.241 N 
ATOM     15  H   UNL     1      -0.113   1.937 -24.348  0.00  0.00    +0.204 HD
ATOM     16  C   UNL     1      -1.649   3.237 -24.896  0.00  0.00    +0.132 C 
ATOM     17  C   UNL     1      -1.715   4.128 -24.197  0.00  0.00    +0.055 C 
ATOM     18  C   UNL     1      -0.701   3.555 -23.588  0.00  0.00    +0.111 C 
ATOM     19  C   UNL     1      -1.523   4.607 -23.571  0.00  0.00    +0.063 C 
ATOM     20  C   UNL     1      -2.461   4.730 -24.488  0.00  0.00    +0.011 C 
BRANCH  12  22
ATOM     21  C   UNL     1      -4.780   3.558 -26.093  0.00  0.00    +0.004 C 
ATOM     22  C   UNL     1      -3.543   3.931 -26.360  0.00  0.00    -0.026 C 
ENDBRANCH  12  22
ENDBRANCH   1  18
BRANCH   1  23
ATOM     23  O   UNL     1      -0.055   2.925 -21.487  0.00  0.00    -0.447 OA
BRANCH  23  24
ATOM     24  C   UNL     1      -1.079   2.103 -21.359  0.00  0.00    +0.340 C 
ATOM     25  O   UNL     1      -0.891   0.799 -21.433  0.00  0.00    -0.245 OA
BRANCH  24  26
ATOM     26  C   UNL     1      -2.289   2.586 -21.156  0.00  0.00    +0.059 A 
ATOM     27  C   UNL     1      -2.465   3.595 -20.319  0.00  0.00    +0.015 A 
ATOM     28  C   UNL     1      -3.676   4.077 -20.117  0.00  0.00    +0.001 A 
ATOM     29  C   UNL     1      -4.712   3.556 -20.746  0.00  0.00    +0.000 A 
ATOM     30  C   UNL     1      -4.535   2.547 -21.583  0.00  0.00    +0.001 A 
ATOM     31  C   UNL     1      -3.324   2.065 -21.785  0.00  0.00    +0.015 A 
ENDBRANCH  24  26
ENDBRANCH  23  24
ENDBRANCH   1  23
TORSDOF 6
ENDMDL
MODEL 5
REMARK VINA RESULT:    -8.683      1.786      6.369
REMARK INTER + INTRA:         -12.336
REMARK INTER:                 -11.152
REMARK INTRA:                  -1.184
REMARK UNBOUND:                -0.608
REMARK  Name = C=C[C@@H]1CN2CC[C@H]1C[C@H]2[C@@H](OC(=O)c1ccccc1)c1ccnc2ccccc12     ZINC000252462932
REMARK  6 active torsions:
REMARK  status: ('A' for Active; 'I' for Inactive)
REMARK    1  A    between atoms: C_2  and  C_3
REMARK    2  A    between atoms: C_10  and  C_11
REMARK    3  A    between atoms: C_11  and  O_12
REMARK    4  A    between atoms: C_11  and  C_21
REMARK    5  A    between atoms: O_12  and  C_13
REMARK    6  A    between atoms: C_13  and  C_15
REMARK                            x       y       z     vdW  Elec       q    Type
REMARK                         _______ _______ _______ _____ _____    ______ ____
ROOT
ATOM      1  C   UNL     1       0.270   3.146 -23.578  0.00  0.00    +0.255 C 
ENDROOT
BRANCH   1   2
ATOM      2  C   UNL     1       1.490   3.535 -23.243  0.00  0.00    +0.009 A 
ATOM      3  C   UNL     1       1.828   4.805 -23.343  0.00  0.00    +0.028 A 
ATOM      4  C   UNL     1       3.045   5.196 -23.009  0.00  0.00    +0.112 A 
ATOM      5  N   UNL     1       3.922   4.308 -22.575  0.00  0.00    -0.255 NA
ATOM      6  C   UNL     1       3.584   3.039 -22.474  0.00  0.00    +0.071 A 
ATOM      7  C   UNL     1       4.461   2.151 -22.040  0.00  0.00    +0.028 A 
ATOM      8  C   UNL     1       4.123   0.882 -21.940  0.00  0.00    +0.002 A 
ATOM      9  C   UNL     1       2.906   0.492 -22.274  0.00  0.00    +0.001 A 
ATOM     10  C   UNL     1       2.029   1.379 -22.708  0.00  0.00    +0.010 A 
ATOM     11  C   UNL     1       2.367   2.649 -22.808  0.00  0.00    +0.007 A 
ENDBRANCH   1   2
BRANCH   1  18
ATOM     12  C   UNL     1      -2.648   3.192 -20.864  0.00  0.00    +0.060 C 
ATOM     13  C   UNL     1      -2.118   4.345 -21.301  0.00  0.00    +0.139 C 
ATOM     14  N   UNL     1      -1.143   4.309 -22.209  0.00  0.00    +0.241 N 
ATOM     15  H   UNL     1      -0.606   5.041 -22.673  0.00  0.00    +0.204 HD
ATOM     16  C   UNL     1      -1.818   3.718 -21.610  0.00  0.00    +0.132 C 
ATOM     17  C   UNL     1      -1.592   2.638 -21.871  0.00  0.00    +0.055 C 
ATOM     18  C   UNL     1      -0.696   3.161 -22.679  0.00  0.00    +0.111 C 
ATOM     19  C   UNL     1      -1.225   2.016 -22.242  0.00  0.00    +0.063 C 
ATOM     20  C   UNL     1      -2.190   2.032 -21.344  0.00  0.00    +0.011 C 
BRANCH  12  22
ATOM     21  C   UNL     1      -4.701   2.475 -20.149  0.00  0.00    +0.004 C 
ATOM     22  C   UNL     1      -3.616   3.203 -19.964  0.00  0.00    -0.026 C 
ENDBRANCH  12  22
ENDBRANCH   1  18
BRANCH   1  23
ATOM     23  O   UNL     1       0.021   2.743 -24.808  0.00  0.00    -0.447 OA
BRANCH  23  24
ATOM     24  C   UNL     1      -0.693   3.500 -25.618  0.00  0.00    +0.340 C 
ATOM     25  O   UNL     1      -0.104   4.157 -26.599  0.00  0.00    -0.245 OA
BRANCH  24  26
ATOM     26  C   UNL     1      -1.997   3.600 -25.447  0.00  0.00    +0.059 A 
ATOM     27  C   UNL     1      -2.524   4.745 -25.045  0.00  0.00    +0.015 A 
ATOM     28  C   UNL     1      -3.828   4.844 -24.874  0.00  0.00    +0.001 A 
ATOM     29  C   UNL     1      -4.608   3.806 -25.102  0.00  0.00    +0.000 A 
ATOM     30  C   UNL     1      -4.081   2.661 -25.504  0.00  0.00    +0.001 A 
ATOM     31  C   UNL     1      -2.777   2.562 -25.675  0.00  0.00    +0.015 A 
ENDBRANCH  24  26
ENDBRANCH  23  24
ENDBRANCH   1  23
TORSDOF 6
ENDMDL
MODEL 6
REMARK VINA RESULT:    -8.356      1.649      6.085
REMARK INTER + INTRA:         -11.895
REMARK INTER:                 -11.636
REMARK INTRA:                  -0.258
REMARK UNBOUND:                -0.608
REMARK  Name = C=C[C@@H]1CN2CC[C@H]1C[C@H]2[C@@H](OC(=O)c1ccccc1)c1ccnc2ccccc12     ZINC000252462932
REMARK  6 active torsions:
REMARK  status: ('A' for Active; 'I' for Inactive)
REMARK    1  A    between atoms: C_2  and  C_3
REMARK    2  A    between atoms: C_10  and  C_11
REMARK    3  A    between atoms: C_11  and  O_12
REMARK    4  A    between atoms: C_11  and  C_21
REMARK    5  A    between atoms: O_12  and  C_13
REMARK    6  A    between atoms: C_13  and  C_15
REMARK                            x       y       z     vdW  Elec       q    Type
REMARK                         _______ _______ _______ _____ _____    ______ ____
ROOT
ATOM      1  C   UNL     1      -0.907   2.853 -22.269  0.00  0.00    +0.255 C 
ENDROOT
BRANCH   1   2
ATOM      2  C   UNL     1       0.344   2.433 -22.355  0.00  0.00    +0.009 A 
ATOM      3  C   UNL     1       0.634   1.169 -22.123  0.00  0.00    +0.028 A 
ATOM      4  C   UNL     1       1.883   0.748 -22.210  0.00  0.00    +0.112 A 
ATOM      5  N   UNL     1       2.841   1.600 -22.529  0.00  0.00    -0.255 NA
ATOM      6  C   UNL     1       2.552   2.864 -22.761  0.00  0.00    +0.071 A 
ATOM      7  C   UNL     1       3.510   3.716 -23.080  0.00  0.00    +0.028 A 
ATOM      8  C   UNL     1       3.220   4.980 -23.312  0.00  0.00    +0.002 A 
ATOM      9  C   UNL     1       1.971   5.401 -23.226  0.00  0.00    +0.001 A 
ATOM     10  C   UNL     1       1.013   4.549 -22.907  0.00  0.00    +0.010 A 
ATOM     11  C   UNL     1       1.303   3.284 -22.675  0.00  0.00    +0.007 A 
ENDBRANCH   1   2
BRANCH   1  18
ATOM     12  C   UNL     1      -2.961   3.683 -25.581  0.00  0.00    +0.060 C 
ATOM     13  C   UNL     1      -2.415   4.676 -24.863  0.00  0.00    +0.139 C 
ATOM     14  N   UNL     1      -1.731   4.378 -23.758  0.00  0.00    +0.241 N 
ATOM     15  H   UNL     1      -1.242   4.955 -23.073  0.00  0.00    +0.204 HD
ATOM     16  C   UNL     1      -2.296   3.978 -24.585  0.00  0.00    +0.132 C 
ATOM     17  C   UNL     1      -2.298   2.854 -24.437  0.00  0.00    +0.055 C 
ATOM     18  C   UNL     1      -1.588   3.128 -23.366  0.00  0.00    +0.111 C 
ATOM     19  C   UNL     1      -2.133   2.142 -24.083  0.00  0.00    +0.063 C 
ATOM     20  C   UNL     1      -2.812   2.417 -25.178  0.00  0.00    +0.011 C 
BRANCH  12  22
ATOM     21  C   UNL     1      -3.268   3.440 -27.837  0.00  0.00    +0.004 C 
ATOM     22  C   UNL     1      -3.643   3.954 -26.681  0.00  0.00    -0.026 C 
ENDBRANCH  12  22
ENDBRANCH   1  18
BRANCH   1  23
ATOM     23  O   UNL     1      -1.475   2.996 -21.087  0.00  0.00    -0.447 OA
BRANCH  23  24
ATOM     24  C   UNL     1      -2.532   3.774 -20.953  0.00  0.00    +0.340 C 
ATOM     25  O   UNL     1      -2.379   5.042 -20.619  0.00  0.00    -0.245 OA
BRANCH  24  26
ATOM     26  C   UNL     1      -3.739   3.285 -21.153  0.00  0.00    +0.059 A 
ATOM     27  C   UNL     1      -4.589   3.925 -21.939  0.00  0.00    +0.015 A 
ATOM     28  C   UNL     1      -5.797   3.434 -22.139  0.00  0.00    +0.001 A 
ATOM     29  C   UNL     1      -6.161   2.308 -21.557  0.00  0.00    +0.000 A 
ATOM     30  C   UNL     1      -5.311   1.668 -20.770  0.00  0.00    +0.001 A 
ATOM     31  C   UNL     1      -4.103   2.159 -20.571  0.00  0.00    +0.015 A 
ENDBRANCH  24  26
ENDBRANCH  23  24
ENDBRANCH   1  23
TORSDOF 6
ENDMDL
MODEL 7
REMARK VINA RESULT:    -7.934      2.416      6.414
REMARK INTER + INTRA:         -11.325
REMARK INTER:                 -12.111
REMARK INTRA:                   0.786
REMARK UNBOUND:                -0.608
REMARK  Name = C=C[C@@H]1CN2CC[C@H]1C[C@H]2[C@@H](OC(=O)c1ccccc1)c1ccnc2ccccc12     ZINC000252462932
REMARK  6 active torsions:
REMARK  status: ('A' for Active; 'I' for Inactive)
REMARK    1  A    between atoms: C_2  and  C_3
REMARK    2  A    between atoms: C_10  and  C_11
REMARK    3  A    between atoms: C_11  and  O_12
REMARK    4  A    between atoms: C_11  and  C_21
REMARK    5  A    between atoms: O_12  and  C_13
REMARK    6  A    between atoms: C_13  and  C_15
REMARK                            x       y       z     vdW  Elec       q    Type
REMARK                         _______ _______ _______ _____ _____    ______ ____
ROOT
ATOM      1  C   UNL     1       3.040   3.714 -23.957  0.00  0.00    +0.255 C 
ENDROOT
BRANCH   1   2
ATOM      2  C   UNL     1       3.665   4.705 -23.341  0.00  0.00    +0.009 A 
ATOM      3  C   UNL     1       2.981   5.740 -22.896  0.00  0.00    +0.028 A 
ATOM      4  C   UNL     1       3.603   6.730 -22.281  0.00  0.00    +0.112 A 
ATOM      5  N   UNL     1       4.912   6.679 -22.115  0.00  0.00    -0.255 NA
ATOM      6  C   UNL     1       5.596   5.645 -22.560  0.00  0.00    +0.071 A 
ATOM      7  C   UNL     1       6.906   5.594 -22.394  0.00  0.00    +0.028 A 
ATOM      8  C   UNL     1       7.589   4.559 -22.840  0.00  0.00    +0.002 A 
ATOM      9  C   UNL     1       6.967   3.569 -23.454  0.00  0.00    +0.001 A 
ATOM     10  C   UNL     1       5.657   3.620 -23.620  0.00  0.00    +0.010 A 
ATOM     11  C   UNL     1       4.974   4.655 -23.175  0.00  0.00    +0.007 A 
ENDBRANCH   1   2
BRANCH   1  18
ATOM     12  C   UNL     1      -0.901   3.890 -24.517  0.00  0.00    +0.060 C 
ATOM     13  C   UNL     1      -0.405   3.740 -23.279  0.00  0.00    +0.139 C 
ATOM     14  N   UNL     1       0.917   3.683 -23.113  0.00  0.00    +0.241 N 
ATOM     15  H   UNL     1       1.503   3.576 -22.285  0.00  0.00    +0.204 HD
ATOM     16  C   UNL     1       0.118   3.785 -23.830  0.00  0.00    +0.132 C 
ATOM     17  C   UNL     1       0.626   3.880 -24.839  0.00  0.00    +0.055 C 
ATOM     18  C   UNL     1       1.734   3.772 -24.142  0.00  0.00    +0.111 C 
ATOM     19  C   UNL     1       1.237   3.921 -25.372  0.00  0.00    +0.063 C 
ATOM     20  C   UNL     1      -0.066   3.979 -25.557  0.00  0.00    +0.011 C 
BRANCH  12  22
ATOM     21  C   UNL     1      -2.786   3.151 -25.585  0.00  0.00    +0.004 C 
ATOM     22  C   UNL     1      -2.209   3.949 -24.707  0.00  0.00    -0.026 C 
ENDBRANCH  12  22
ENDBRANCH   1  18
BRANCH   1  23
ATOM     23  O   UNL     1       3.722   2.669 -24.384  0.00  0.00    -0.447 OA
BRANCH  23  24
ATOM     24  C   UNL     1       3.378   1.455 -23.998  0.00  0.00    +0.340 C 
ATOM     25  O   UNL     1       2.765   0.644 -24.839  0.00  0.00    -0.245 OA
BRANCH  24  26
ATOM     26  C   UNL     1       3.649   1.053 -22.772  0.00  0.00    +0.059 A 
ATOM     27  C   UNL     1       2.680   0.975 -21.874  0.00  0.00    +0.015 A 
ATOM     28  C   UNL     1       2.951   0.573 -20.647  0.00  0.00    +0.001 A 
ATOM     29  C   UNL     1       4.185   0.249 -20.313  0.00  0.00    +0.000 A 
ATOM     30  C   UNL     1       5.154   0.327 -21.210  0.00  0.00    +0.001 A 
ATOM     31  C   UNL     1       4.882   0.729 -22.437  0.00  0.00    +0.015 A 
ENDBRANCH  24  26
ENDBRANCH  23  24
ENDBRANCH   1  23
TORSDOF 6
ENDMDL
MODEL 8
REMARK VINA RESULT:    -7.376      0.856      2.268
REMARK INTER + INTRA:         -10.572
REMARK INTER:                  -9.964
REMARK INTRA:                  -0.608
REMARK UNBOUND:                -0.608
REMARK  Name = C=C[C@@H]1CN2CC[C@H]1C[C@H]2[C@@H](OC(=O)c1ccccc1)c1ccnc2ccccc12     ZINC000252462932
REMARK  6 active torsions:
REMARK  status: ('A' for Active; 'I' for Inactive)
REMARK    1  A    between atoms: C_2  and  C_3
REMARK    2  A    between atoms: C_10  and  C_11
REMARK    3  A    between atoms: C_11  and  O_12
REMARK    4  A    between atoms: C_11  and  C_21
REMARK    5  A    between atoms: O_12  and  C_13
REMARK    6  A    between atoms: C_13  and  C_15
REMARK                            x       y       z     vdW  Elec       q    Type
REMARK                         _______ _______ _______ _____ _____    ______ ____
ROOT
ATOM      1  C   UNL     1      -1.165   2.606 -23.104  0.00  0.00    +0.255 C 
ENDROOT
BRANCH   1   2
ATOM      2  C   UNL     1      -2.433   2.969 -23.213  0.00  0.00    +0.009 A 
ATOM      3  C   UNL     1      -3.192   3.048 -22.138  0.00  0.00    +0.028 A 
ATOM      4  C   UNL     1      -4.458   3.410 -22.246  0.00  0.00    +0.112 A 
ATOM      5  N   UNL     1      -4.960   3.693 -23.435  0.00  0.00    -0.255 NA
ATOM      6  C   UNL     1      -4.201   3.615 -24.509  0.00  0.00    +0.071 A 
ATOM      7  C   UNL     1      -4.703   3.898 -25.698  0.00  0.00    +0.028 A 
ATOM      8  C   UNL     1      -3.944   3.819 -26.772  0.00  0.00    +0.002 A 
ATOM      9  C   UNL     1      -2.678   3.457 -26.664  0.00  0.00    +0.001 A 
ATOM     10  C   UNL     1      -2.176   3.174 -25.475  0.00  0.00    +0.010 A 
ATOM     11  C   UNL     1      -2.936   3.253 -24.401  0.00  0.00    +0.007 A 
ENDBRANCH   1   2
BRANCH   1  18
ATOM     12  C   UNL     1       1.721   5.332 -23.449  0.00  0.00    +0.060 C 
ATOM     13  C   UNL     1       1.794   4.185 -24.143  0.00  0.00    +0.139 C 
ATOM     14  N   UNL     1       0.818   3.286 -24.013  0.00  0.00    +0.241 N 
ATOM     15  H   UNL     1       0.667   2.368 -24.432  0.00  0.00    +0.204 HD
ATOM     16  C   UNL     1       1.177   4.254 -23.702  0.00  0.00    +0.132 C 
ATOM     17  C   UNL     1       0.401   4.647 -22.975  0.00  0.00    +0.055 C 
ATOM     18  C   UNL     1      -0.209   3.509 -23.218  0.00  0.00    +0.111 C 
ATOM     19  C   UNL     1      -0.278   4.651 -22.530  0.00  0.00    +0.063 C 
ATOM     20  C   UNL     1       0.677   5.552 -22.645  0.00  0.00    +0.011 C 
BRANCH  12  22
ATOM     21  C   UNL     1       3.471   6.494 -22.539  0.00  0.00    +0.004 C 
ATOM     22  C   UNL     1       2.677   6.239 -23.561  0.00  0.00    -0.026 C 
ENDBRANCH  12  22
ENDBRANCH   1  18
BRANCH   1  23
ATOM     23  O   UNL     1      -0.857   1.343 -22.880  0.00  0.00    -0.447 OA
BRANCH  23  24
ATOM     24  C   UNL     1      -0.141   1.017 -21.821  0.00  0.00    +0.340 C 
ATOM     25  O   UNL     1      -0.742   0.642 -20.708  0.00  0.00    -0.245 OA
BRANCH  24  26
ATOM     26  C   UNL     1       1.176   1.066 -21.877  0.00  0.00    +0.059 A 
ATOM     27  C   UNL     1       1.817   0.470 -22.868  0.00  0.00    +0.015 A 
ATOM     28  C   UNL     1       3.134   0.519 -22.922  0.00  0.00    +0.001 A 
ATOM     29  C   UNL     1       3.814   1.161 -21.992  0.00  0.00    +0.000 A 
ATOM     30  C   UNL     1       3.172   1.757 -21.000  0.00  0.00    +0.001 A 
ATOM     31  C   UNL     1       1.855   1.708 -20.946  0.00  0.00    +0.015 A 
ENDBRANCH  24  26
ENDBRANCH  23  24
ENDBRANCH   1  23
TORSDOF 6
ENDMDL
MODEL 9
REMARK VINA RESULT:    -7.365      2.214      6.255
REMARK INTER + INTRA:         -10.556
REMARK INTER:                 -10.827
REMARK INTRA:                   0.271
REMARK UNBOUND:                -0.608
REMARK  Name = C=C[C@@H]1CN2CC[C@H]1C[C@H]2[C@@H](OC(=O)c1ccccc1)c1ccnc2ccccc12     ZINC000252462932
REMARK  6 active torsions:
REMARK  status: ('A' for Active; 'I' for Inactive)
REMARK    1  A    between atoms: C_2  and  C_3
REMARK    2  A    between atoms: C_10  and  C_11
REMARK    3  A    between atoms: C_11  and  O_12
REMARK    4  A    between atoms: C_11  and  C_21
REMARK    5  A    between atoms: O_12  and  C_13
REMARK    6  A    between atoms: C_13  and  C_15
REMARK                            x       y       z     vdW  Elec       q    Type
REMARK                         _______ _______ _______ _____ _____    ______ ____
ROOT
ATOM      1  C   UNL     1       1.542   3.476 -23.228  0.00  0.00    +0.255 C 
ENDROOT
BRANCH   1   2
ATOM      2  C   UNL     1       1.710   2.592 -22.258  0.00  0.00    +0.009 A 
ATOM      3  C   UNL     1       0.732   2.351 -21.408  0.00  0.00    +0.028 A 
ATOM      4  C   UNL     1       0.898   1.469 -20.439  0.00  0.00    +0.112 A 
ATOM      5  N   UNL     1       2.049   0.831 -20.324  0.00  0.00    -0.255 NA
ATOM      6  C   UNL     1       3.027   1.072 -21.172  0.00  0.00    +0.071 A 
ATOM      7  C   UNL     1       4.178   0.433 -21.057  0.00  0.00    +0.028 A 
ATOM      8  C   UNL     1       5.156   0.675 -21.906  0.00  0.00    +0.002 A 
ATOM      9  C   UNL     1       4.989   1.557 -22.876  0.00  0.00    +0.001 A 
ATOM     10  C   UNL     1       3.839   2.195 -22.991  0.00  0.00    +0.010 A 
ATOM     11  C   UNL     1       2.860   1.953 -22.142  0.00  0.00    +0.007 A 
ENDBRANCH   1   2
BRANCH   1  18
ATOM     12  C   UNL     1      -2.069   4.010 -24.827  0.00  0.00    +0.060 C 
ATOM     13  C   UNL     1      -1.813   4.448 -23.584  0.00  0.00    +0.139 C 
ATOM     14  N   UNL     1      -0.598   4.260 -23.067  0.00  0.00    +0.241 N 
ATOM     15  H   UNL     1      -0.189   4.502 -22.165  0.00  0.00    +0.204 HD
ATOM     16  C   UNL     1      -1.227   4.107 -23.930  0.00  0.00    +0.132 C 
ATOM     17  C   UNL     1      -0.578   3.570 -24.689  0.00  0.00    +0.055 C 
ATOM     18  C   UNL     1       0.346   3.653 -23.758  0.00  0.00    +0.111 C 
ATOM     19  C   UNL     1       0.088   3.219 -24.994  0.00  0.00    +0.063 C 
ATOM     20  C   UNL     1      -1.106   3.396 -25.522  0.00  0.00    +0.011 C 
BRANCH  12  22
ATOM     21  C   UNL     1      -3.921   3.159 -25.868  0.00  0.00    +0.004 C 
ATOM     22  C   UNL     1      -3.266   4.186 -25.361  0.00  0.00    -0.026 C 
ENDBRANCH  12  22
ENDBRANCH   1  18
BRANCH   1  23
ATOM     23  O   UNL     1       2.569   4.179 -23.666  0.00  0.00    -0.447 OA
BRANCH  23  24
ATOM     24  C   UNL     1       2.702   5.442 -23.311  0.00  0.00    +0.340 C 
ATOM     25  O   UNL     1       1.691   6.277 -23.452  0.00  0.00    -0.245 OA
BRANCH  24  26
ATOM     26  C   UNL     1       3.847   5.869 -22.815  0.00  0.00    +0.059 A 
ATOM     27  C   UNL     1       3.909   7.048 -22.218  0.00  0.00    +0.015 A 
ATOM     28  C   UNL     1       5.055   7.474 -21.723  0.00  0.00    +0.001 A 
ATOM     29  C   UNL     1       6.138   6.728 -21.819  0.00  0.00    +0.000 A 
ATOM     30  C   UNL     1       6.076   5.549 -22.415  0.00  0.00    +0.001 A 
ATOM     31  C   UNL     1       4.930   5.123 -22.911  0.00  0.00    +0.015 A 
ENDBRANCH  24  26
ENDBRANCH  23  24
ENDBRANCH   1  23
TORSDOF 6
ENDMDL
