MODEL 1
REMARK VINA RESULT:    -9.187      0.000      0.000
REMARK INTER + INTRA:         -10.712
REMARK INTER:                 -10.262
REMARK INTRA:                  -0.450
REMARK UNBOUND:                -0.451
REMARK  Name = ZINC000000057658
REMARK  3 active torsions:
REMARK  status: ('A' for Active; 'I' for Inactive)
REMARK    1  A    between atoms: C_4  and  C_5
REMARK    2  A    between atoms: C_8  and  O_9
REMARK    3  A    between atoms: C_15  and  O_16
REMARK                            x       y       z     vdW  Elec       q    Type
REMARK                         _______ _______ _______ _____ _____    ______ ____
ROOT
ATOM      1  O   UNL     1      -3.770   2.616 -20.373  0.00  0.00    -0.287 OA
ATOM      2  C   UNL     1      -3.030   2.790 -21.428  0.00  0.00    +0.193 A 
ATOM      3  C   UNL     1      -1.754   2.551 -21.373  0.00  0.00    +0.098 A 
ATOM      4  C   UNL     1      -1.014   2.724 -22.428  0.00  0.00    +0.139 A 
ATOM      5  O   UNL     1      -1.550   3.136 -23.537  0.00  0.00    -0.454 OA
ATOM      6  C   UNL     1      -2.827   3.375 -23.592  0.00  0.00    +0.143 A 
ATOM      7  C   UNL     1      -3.364   3.788 -24.702  0.00  0.00    +0.092 A 
ATOM      8  C   UNL     1      -4.641   4.026 -24.757  0.00  0.00    +0.120 A 
ATOM      9  C   UNL     1      -5.381   3.853 -23.703  0.00  0.00    +0.046 A 
ATOM     10  C   UNL     1      -4.844   3.441 -22.593  0.00  0.00    +0.019 A 
ATOM     11  C   UNL     1      -3.567   3.202 -22.537  0.00  0.00    +0.064 A 
ENDROOT
BRANCH   4  12
ATOM     12  C   UNL     1       0.264   2.485 -22.372  0.00  0.00    +0.018 A 
ATOM     13  C   UNL     1       1.086   3.179 -23.102  0.00  0.00    +0.015 A 
ATOM     14  C   UNL     1       2.363   2.940 -23.047  0.00  0.00    +0.046 A 
ATOM     15  C   UNL     1       2.816   2.007 -22.262  0.00  0.00    +0.117 A 
ATOM     16  C   UNL     1       1.993   1.315 -21.533  0.00  0.00    +0.046 A 
ATOM     17  C   UNL     1       0.717   1.553 -21.588  0.00  0.00    +0.015 A 
BRANCH  15  18
ATOM     18  O   UNL     1       4.092   1.769 -22.207  0.00  0.00    -0.507 OA
ATOM     19  H   UNL     1       4.436   1.203 -21.544  0.00  0.00    +0.292 HD
ENDBRANCH  15  18
ENDBRANCH   4  12
BRANCH   8  20
ATOM     20  O   UNL     1      -5.177   4.438 -25.867  0.00  0.00    -0.507 OA
ATOM     21  H   UNL     1      -4.988   5.298 -26.188  0.00  0.00    +0.292 HD
ENDBRANCH   8  20
TORSDOF 3
ENDMDL
MODEL 2
REMARK VINA RESULT:    -9.145      1.529      6.410
REMARK INTER + INTRA:         -10.665
REMARK INTER:                 -10.222
REMARK INTRA:                  -0.444
REMARK UNBOUND:                -0.451
REMARK  Name = ZINC000000057658
REMARK  3 active torsions:
REMARK  status: ('A' for Active; 'I' for Inactive)
REMARK    1  A    between atoms: C_4  and  C_5
REMARK    2  A    between atoms: C_8  and  O_9
REMARK    3  A    between atoms: C_15  and  O_16
REMARK                            x       y       z     vdW  Elec       q    Type
REMARK                         _______ _______ _______ _____ _____    ______ ____
ROOT
ATOM      1  O   UNL     1       1.255   5.259 -23.975  0.00  0.00    -0.287 OA
ATOM      2  C   UNL     1       0.641   4.265 -23.404  0.00  0.00    +0.193 A 
ATOM      3  C   UNL     1      -0.650   4.294 -23.260  0.00  0.00    +0.098 A 
ATOM      4  C   UNL     1      -1.264   3.301 -22.689  0.00  0.00    +0.139 A 
ATOM      5  O   UNL     1      -0.586   2.277 -22.263  0.00  0.00    -0.454 OA
ATOM      6  C   UNL     1       0.705   2.247 -22.406  0.00  0.00    +0.143 A 
ATOM      7  C   UNL     1       1.384   1.223 -21.979  0.00  0.00    +0.092 A 
ATOM      8  C   UNL     1       2.675   1.194 -22.123  0.00  0.00    +0.120 A 
ATOM      9  C   UNL     1       3.289   2.188 -22.694  0.00  0.00    +0.046 A 
ATOM     10  C   UNL     1       2.611   3.211 -23.121  0.00  0.00    +0.019 A 
ATOM     11  C   UNL     1       1.319   3.241 -22.977  0.00  0.00    +0.064 A 
ENDROOT
BRANCH   4  12
ATOM     12  C   UNL     1      -2.556   3.331 -22.546  0.00  0.00    +0.018 A 
ATOM     13  C   UNL     1      -3.314   3.660 -23.550  0.00  0.00    +0.015 A 
ATOM     14  C   UNL     1      -4.606   3.690 -23.406  0.00  0.00    +0.046 A 
ATOM     15  C   UNL     1      -5.139   3.391 -22.258  0.00  0.00    +0.117 A 
ATOM     16  C   UNL     1      -4.381   3.063 -21.255  0.00  0.00    +0.046 A 
ATOM     17  C   UNL     1      -3.090   3.032 -21.399  0.00  0.00    +0.015 A 
BRANCH  15  18
ATOM     18  O   UNL     1      -6.430   3.421 -22.115  0.00  0.00    -0.507 OA
ATOM     19  H   UNL     1      -6.918   4.167 -22.407  0.00  0.00    +0.292 HD
ENDBRANCH  15  18
ENDBRANCH   4  12
BRANCH   8  20
ATOM     20  O   UNL     1       3.353   0.170 -21.697  0.00  0.00    -0.507 OA
ATOM     21  H   UNL     1       3.875  -0.328 -22.294  0.00  0.00    +0.292 HD
ENDBRANCH   8  20
TORSDOF 3
ENDMDL
MODEL 3
REMARK VINA RESULT:    -8.956      1.559      6.255
REMARK INTER + INTRA:         -10.455
REMARK INTER:                 -10.000
REMARK INTRA:                  -0.454
REMARK UNBOUND:                -0.451
REMARK  Name = ZINC000000057658
REMARK  3 active torsions:
REMARK  status: ('A' for Active; 'I' for Inactive)
REMARK    1  A    between atoms: C_4  and  C_5
REMARK    2  A    between atoms: C_8  and  O_9
REMARK    3  A    between atoms: C_15  and  O_16
REMARK                            x       y       z     vdW  Elec       q    Type
REMARK                         _______ _______ _______ _____ _____    ______ ____
ROOT
ATOM      1  O   UNL     1       0.258   1.327 -20.645  0.00  0.00    -0.287 OA
ATOM      2  C   UNL     1       0.286   1.829 -21.844  0.00  0.00    +0.193 A 
ATOM      3  C   UNL     1      -0.815   2.227 -22.408  0.00  0.00    +0.098 A 
ATOM      4  C   UNL     1      -0.787   2.729 -23.607  0.00  0.00    +0.139 A 
ATOM      5  O   UNL     1       0.343   2.833 -24.242  0.00  0.00    -0.454 OA
ATOM      6  C   UNL     1       1.444   2.434 -23.677  0.00  0.00    +0.143 A 
ATOM      7  C   UNL     1       2.574   2.538 -24.312  0.00  0.00    +0.092 A 
ATOM      8  C   UNL     1       3.675   2.140 -23.748  0.00  0.00    +0.120 A 
ATOM      9  C   UNL     1       3.647   1.638 -22.549  0.00  0.00    +0.046 A 
ATOM     10  C   UNL     1       2.518   1.534 -21.914  0.00  0.00    +0.019 A 
ATOM     11  C   UNL     1       1.416   1.933 -22.479  0.00  0.00    +0.064 A 
ENDROOT
BRANCH   4  12
ATOM     12  C   UNL     1      -1.889   3.127 -24.172  0.00  0.00    +0.018 A 
ATOM     13  C   UNL     1      -1.926   3.323 -25.456  0.00  0.00    +0.015 A 
ATOM     14  C   UNL     1      -3.028   3.721 -26.020  0.00  0.00    +0.046 A 
ATOM     15  C   UNL     1      -4.091   3.923 -25.299  0.00  0.00    +0.117 A 
ATOM     16  C   UNL     1      -4.053   3.727 -24.016  0.00  0.00    +0.046 A 
ATOM     17  C   UNL     1      -2.952   3.329 -23.451  0.00  0.00    +0.015 A 
BRANCH  15  18
ATOM     18  O   UNL     1      -5.192   4.321 -25.864  0.00  0.00    -0.507 OA
ATOM     19  H   UNL     1      -5.900   4.639 -25.339  0.00  0.00    +0.292 HD
ENDBRANCH  15  18
ENDBRANCH   4  12
BRANCH   8  20
ATOM     20  O   UNL     1       4.805   2.243 -24.382  0.00  0.00    -0.507 OA
ATOM     21  H   UNL     1       4.812   2.343 -25.314  0.00  0.00    +0.292 HD
ENDBRANCH   8  20
TORSDOF 3
ENDMDL
MODEL 4
REMARK VINA RESULT:    -8.922      1.377      2.395
REMARK INTER + INTRA:         -10.416
REMARK INTER:                  -9.960
REMARK INTRA:                  -0.456
REMARK UNBOUND:                -0.451
REMARK  Name = ZINC000000057658
REMARK  3 active torsions:
REMARK  status: ('A' for Active; 'I' for Inactive)
REMARK    1  A    between atoms: C_4  and  C_5
REMARK    2  A    between atoms: C_8  and  O_9
REMARK    3  A    between atoms: C_15  and  O_16
REMARK                            x       y       z     vdW  Elec       q    Type
REMARK                         _______ _______ _______ _____ _____    ______ ____
ROOT
ATOM      1  O   UNL     1      -1.851   3.715 -25.906  0.00  0.00    -0.287 OA
ATOM      2  C   UNL     1      -1.906   3.344 -24.661  0.00  0.00    +0.193 A 
ATOM      3  C   UNL     1      -0.832   2.927 -24.060  0.00  0.00    +0.098 A 
ATOM      4  C   UNL     1      -0.886   2.556 -22.815  0.00  0.00    +0.139 A 
ATOM      5  O   UNL     1      -2.014   2.602 -22.171  0.00  0.00    -0.454 OA
ATOM      6  C   UNL     1      -3.088   3.020 -22.773  0.00  0.00    +0.143 A 
ATOM      7  C   UNL     1      -4.217   3.067 -22.129  0.00  0.00    +0.092 A 
ATOM      8  C   UNL     1      -5.291   3.484 -22.731  0.00  0.00    +0.120 A 
ATOM      9  C   UNL     1      -5.237   3.855 -23.976  0.00  0.00    +0.046 A 
ATOM     10  C   UNL     1      -4.109   3.808 -24.619  0.00  0.00    +0.019 A 
ATOM     11  C   UNL     1      -3.034   3.390 -24.018  0.00  0.00    +0.064 A 
ENDROOT
BRANCH   4  12
ATOM     12  C   UNL     1       0.189   2.138 -22.213  0.00  0.00    +0.018 A 
ATOM     13  C   UNL     1       1.321   2.113 -22.852  0.00  0.00    +0.015 A 
ATOM     14  C   UNL     1       2.396   1.695 -22.250  0.00  0.00    +0.046 A 
ATOM     15  C   UNL     1       2.337   1.304 -21.012  0.00  0.00    +0.117 A 
ATOM     16  C   UNL     1       1.206   1.330 -20.375  0.00  0.00    +0.046 A 
ATOM     17  C   UNL     1       0.131   1.747 -20.975  0.00  0.00    +0.015 A 
BRANCH  15  18
ATOM     18  O   UNL     1       3.412   0.887 -20.411  0.00  0.00    -0.507 OA
ATOM     19  H   UNL     1       3.610  -0.029 -20.386  0.00  0.00    +0.292 HD
ENDBRANCH  15  18
ENDBRANCH   4  12
BRANCH   8  20
ATOM     20  O   UNL     1      -6.420   3.531 -22.087  0.00  0.00    -0.507 OA
ATOM     21  H   UNL     1      -6.424   3.613 -21.154  0.00  0.00    +0.292 HD
ENDBRANCH   8  20
TORSDOF 3
ENDMDL
MODEL 5
REMARK VINA RESULT:    -8.797      1.900      6.085
REMARK INTER + INTRA:         -10.277
REMARK INTER:                  -9.837
REMARK INTRA:                  -0.440
REMARK UNBOUND:                -0.451
REMARK  Name = ZINC000000057658
REMARK  3 active torsions:
REMARK  status: ('A' for Active; 'I' for Inactive)
REMARK    1  A    between atoms: C_4  and  C_5
REMARK    2  A    between atoms: C_8  and  O_9
REMARK    3  A    between atoms: C_15  and  O_16
REMARK                            x       y       z     vdW  Elec       q    Type
REMARK                         _______ _______ _______ _____ _____    ______ ____
ROOT
ATOM      1  O   UNL     1       1.073   0.803 -22.514  0.00  0.00    -0.287 OA
ATOM      2  C   UNL     1       0.387   1.906 -22.563  0.00  0.00    +0.193 A 
ATOM      3  C   UNL     1      -0.899   1.881 -22.380  0.00  0.00    +0.098 A 
ATOM      4  C   UNL     1      -1.585   2.984 -22.429  0.00  0.00    +0.139 A 
ATOM      5  O   UNL     1      -0.984   4.113 -22.661  0.00  0.00    -0.454 OA
ATOM      6  C   UNL     1       0.302   4.139 -22.843  0.00  0.00    +0.143 A 
ATOM      7  C   UNL     1       0.904   5.268 -23.075  0.00  0.00    +0.092 A 
ATOM      8  C   UNL     1       2.191   5.294 -23.258  0.00  0.00    +0.120 A 
ATOM      9  C   UNL     1       2.876   4.190 -23.208  0.00  0.00    +0.046 A 
ATOM     10  C   UNL     1       2.276   3.061 -22.977  0.00  0.00    +0.019 A 
ATOM     11  C   UNL     1       0.988   3.035 -22.794  0.00  0.00    +0.064 A 
ENDROOT
BRANCH   4  12
ATOM     12  C   UNL     1      -2.873   2.958 -22.247  0.00  0.00    +0.018 A 
ATOM     13  C   UNL     1      -3.365   2.419 -21.171  0.00  0.00    +0.015 A 
ATOM     14  C   UNL     1      -4.652   2.392 -20.988  0.00  0.00    +0.046 A 
ATOM     15  C   UNL     1      -5.445   2.905 -21.882  0.00  0.00    +0.117 A 
ATOM     16  C   UNL     1      -4.953   3.444 -22.956  0.00  0.00    +0.046 A 
ATOM     17  C   UNL     1      -3.666   3.470 -23.139  0.00  0.00    +0.015 A 
BRANCH  15  18
ATOM     18  O   UNL     1      -6.732   2.879 -21.699  0.00  0.00    -0.507 OA
ATOM     19  H   UNL     1      -7.119   3.388 -21.014  0.00  0.00    +0.292 HD
ENDBRANCH  15  18
ENDBRANCH   4  12
BRANCH   8  20
ATOM     20  O   UNL     1       2.791   6.423 -23.489  0.00  0.00    -0.507 OA
ATOM     21  H   UNL     1       3.398   6.768 -22.864  0.00  0.00    +0.292 HD
ENDBRANCH   8  20
TORSDOF 3
ENDMDL
MODEL 6
REMARK VINA RESULT:    -8.772      1.905      6.627
REMARK INTER + INTRA:         -10.248
REMARK INTER:                  -9.816
REMARK INTRA:                  -0.432
REMARK UNBOUND:                -0.451
REMARK  Name = ZINC000000057658
REMARK  3 active torsions:
REMARK  status: ('A' for Active; 'I' for Inactive)
REMARK    1  A    between atoms: C_4  and  C_5
REMARK    2  A    between atoms: C_8  and  O_9
REMARK    3  A    between atoms: C_15  and  O_16
REMARK                            x       y       z     vdW  Elec       q    Type
REMARK                         _______ _______ _______ _____ _____    ______ ____
ROOT
ATOM      1  O   UNL     1       2.367   5.597 -23.555  0.00  0.00    -0.287 OA
ATOM      2  C   UNL     1       1.582   4.560 -23.539  0.00  0.00    +0.193 A 
ATOM      3  C   UNL     1       0.383   4.645 -24.035  0.00  0.00    +0.098 A 
ATOM      4  C   UNL     1      -0.401   3.608 -24.018  0.00  0.00    +0.139 A 
ATOM      5  O   UNL     1       0.012   2.488 -23.507  0.00  0.00    -0.454 OA
ATOM      6  C   UNL     1       1.211   2.403 -23.011  0.00  0.00    +0.143 A 
ATOM      7  C   UNL     1       1.626   1.282 -22.499  0.00  0.00    +0.092 A 
ATOM      8  C   UNL     1       2.824   1.198 -22.003  0.00  0.00    +0.120 A 
ATOM      9  C   UNL     1       3.609   2.234 -22.019  0.00  0.00    +0.046 A 
ATOM     10  C   UNL     1       3.195   3.355 -22.531  0.00  0.00    +0.019 A 
ATOM     11  C   UNL     1       1.996   3.440 -23.027  0.00  0.00    +0.064 A 
ENDROOT
BRANCH   4  12
ATOM     12  C   UNL     1      -1.601   3.693 -24.515  0.00  0.00    +0.018 A 
ATOM     13  C   UNL     1      -2.594   4.048 -23.755  0.00  0.00    +0.015 A 
ATOM     14  C   UNL     1      -3.793   4.133 -24.251  0.00  0.00    +0.046 A 
ATOM     15  C   UNL     1      -3.997   3.863 -25.506  0.00  0.00    +0.117 A 
ATOM     16  C   UNL     1      -3.004   3.508 -26.265  0.00  0.00    +0.046 A 
ATOM     17  C   UNL     1      -1.806   3.423 -25.769  0.00  0.00    +0.015 A 
BRANCH  15  18
ATOM     18  O   UNL     1      -5.196   3.948 -26.001  0.00  0.00    -0.507 OA
ATOM     19  H   UNL     1      -5.573   3.214 -26.446  0.00  0.00    +0.292 HD
ENDBRANCH  15  18
ENDBRANCH   4  12
BRANCH   8  20
ATOM     20  O   UNL     1       3.238   0.077 -21.491  0.00  0.00    -0.507 OA
ATOM     21  H   UNL     1       3.999  -0.345 -21.840  0.00  0.00    +0.292 HD
ENDBRANCH   8  20
TORSDOF 3
ENDMDL
MODEL 7
REMARK VINA RESULT:    -8.673      1.333      1.815
REMARK INTER + INTRA:         -10.138
REMARK INTER:                  -9.707
REMARK INTRA:                  -0.432
REMARK UNBOUND:                -0.451
REMARK  Name = ZINC000000057658
REMARK  3 active torsions:
REMARK  status: ('A' for Active; 'I' for Inactive)
REMARK    1  A    between atoms: C_4  and  C_5
REMARK    2  A    between atoms: C_8  and  O_9
REMARK    3  A    between atoms: C_15  and  O_16
REMARK                            x       y       z     vdW  Elec       q    Type
REMARK                         _______ _______ _______ _____ _____    ______ ____
ROOT
ATOM      1  O   UNL     1      -2.193   2.415 -20.978  0.00  0.00    -0.287 OA
ATOM      2  C   UNL     1      -1.657   2.765 -22.109  0.00  0.00    +0.193 A 
ATOM      3  C   UNL     1      -0.370   2.685 -22.271  0.00  0.00    +0.098 A 
ATOM      4  C   UNL     1       0.167   3.035 -23.402  0.00  0.00    +0.139 A 
ATOM      5  O   UNL     1      -0.584   3.467 -24.371  0.00  0.00    -0.454 OA
ATOM      6  C   UNL     1      -1.871   3.548 -24.209  0.00  0.00    +0.143 A 
ATOM      7  C   UNL     1      -2.622   3.980 -25.178  0.00  0.00    +0.092 A 
ATOM      8  C   UNL     1      -3.910   4.061 -25.017  0.00  0.00    +0.120 A 
ATOM      9  C   UNL     1      -4.446   3.710 -23.886  0.00  0.00    +0.046 A 
ATOM     10  C   UNL     1      -3.695   3.278 -22.916  0.00  0.00    +0.019 A 
ATOM     11  C   UNL     1      -2.407   3.197 -23.078  0.00  0.00    +0.064 A 
ENDROOT
BRANCH   4  12
ATOM     12  C   UNL     1       1.455   2.954 -23.563  0.00  0.00    +0.018 A 
ATOM     13  C   UNL     1       1.979   1.878 -24.071  0.00  0.00    +0.015 A 
ATOM     14  C   UNL     1       3.267   1.797 -24.232  0.00  0.00    +0.046 A 
ATOM     15  C   UNL     1       4.029   2.792 -23.886  0.00  0.00    +0.117 A 
ATOM     16  C   UNL     1       3.504   3.867 -23.379  0.00  0.00    +0.046 A 
ATOM     17  C   UNL     1       2.217   3.948 -23.217  0.00  0.00    +0.015 A 
BRANCH  15  18
ATOM     18  O   UNL     1       5.316   2.711 -24.048  0.00  0.00    -0.507 OA
ATOM     19  H   UNL     1       5.719   3.088 -24.805  0.00  0.00    +0.292 HD
ENDBRANCH  15  18
ENDBRANCH   4  12
BRANCH   8  20
ATOM     20  O   UNL     1      -4.660   4.493 -25.986  0.00  0.00    -0.507 OA
ATOM     21  H   UNL     1      -5.208   5.242 -25.856  0.00  0.00    +0.292 HD
ENDBRANCH   8  20
TORSDOF 3
ENDMDL
MODEL 8
REMARK VINA RESULT:    -8.363      1.547      3.225
REMARK INTER + INTRA:          -9.792
REMARK INTER:                  -9.340
REMARK INTRA:                  -0.452
REMARK UNBOUND:                -0.451
REMARK  Name = ZINC000000057658
REMARK  3 active torsions:
REMARK  status: ('A' for Active; 'I' for Inactive)
REMARK    1  A    between atoms: C_4  and  C_5
REMARK    2  A    between atoms: C_8  and  O_9
REMARK    3  A    between atoms: C_15  and  O_16
REMARK                            x       y       z     vdW  Elec       q    Type
REMARK                         _______ _______ _______ _____ _____    ______ ____
ROOT
ATOM      1  O   UNL     1      -1.141   3.751 -25.500  0.00  0.00    -0.287 OA
ATOM      2  C   UNL     1      -0.781   3.176 -24.391  0.00  0.00    +0.193 A 
ATOM      3  C   UNL     1       0.454   2.808 -24.221  0.00  0.00    +0.098 A 
ATOM      4  C   UNL     1       0.814   2.233 -23.112  0.00  0.00    +0.139 A 
ATOM      5  O   UNL     1      -0.060   2.026 -22.173  0.00  0.00    -0.454 OA
ATOM      6  C   UNL     1      -1.295   2.394 -22.343  0.00  0.00    +0.143 A 
ATOM      7  C   UNL     1      -2.171   2.187 -21.404  0.00  0.00    +0.092 A 
ATOM      8  C   UNL     1      -3.406   2.555 -21.574  0.00  0.00    +0.120 A 
ATOM      9  C   UNL     1      -3.766   3.130 -22.683  0.00  0.00    +0.046 A 
ATOM     10  C   UNL     1      -2.891   3.337 -23.622  0.00  0.00    +0.019 A 
ATOM     11  C   UNL     1      -1.656   2.969 -23.452  0.00  0.00    +0.064 A 
ENDROOT
BRANCH   4  12
ATOM     12  C   UNL     1       2.050   1.865 -22.942  0.00  0.00    +0.018 A 
ATOM     13  C   UNL     1       2.333   0.899 -22.120  0.00  0.00    +0.015 A 
ATOM     14  C   UNL     1       3.569   0.531 -21.950  0.00  0.00    +0.046 A 
ATOM     15  C   UNL     1       4.520   1.130 -22.602  0.00  0.00    +0.117 A 
ATOM     16  C   UNL     1       4.237   2.096 -23.424  0.00  0.00    +0.046 A 
ATOM     17  C   UNL     1       3.002   2.464 -23.594  0.00  0.00    +0.015 A 
BRANCH  15  18
ATOM     18  O   UNL     1       5.755   0.762 -22.432  0.00  0.00    -0.507 OA
ATOM     19  H   UNL     1       5.950  -0.107 -22.143  0.00  0.00    +0.292 HD
ENDBRANCH  15  18
ENDBRANCH   4  12
BRANCH   8  20
ATOM     20  O   UNL     1      -4.281   2.347 -20.636  0.00  0.00    -0.507 OA
ATOM     21  H   UNL     1      -4.017   2.368 -19.737  0.00  0.00    +0.292 HD
ENDBRANCH   8  20
TORSDOF 3
ENDMDL
MODEL 9
REMARK VINA RESULT:    -8.203      1.819      6.722
REMARK INTER + INTRA:          -9.613
REMARK INTER:                  -9.162
REMARK INTRA:                  -0.451
REMARK UNBOUND:                -0.451
REMARK  Name = ZINC000000057658
REMARK  3 active torsions:
REMARK  status: ('A' for Active; 'I' for Inactive)
REMARK    1  A    between atoms: C_4  and  C_5
REMARK    2  A    between atoms: C_8  and  O_9
REMARK    3  A    between atoms: C_15  and  O_16
REMARK                            x       y       z     vdW  Elec       q    Type
REMARK                         _______ _______ _______ _____ _____    ______ ____
ROOT
ATOM      1  O   UNL     1       3.046   0.198 -21.333  0.00  0.00    -0.287 OA
ATOM      2  C   UNL     1       2.548   1.299 -21.813  0.00  0.00    +0.193 A 
ATOM      3  C   UNL     1       1.260   1.452 -21.886  0.00  0.00    +0.098 A 
ATOM      4  C   UNL     1       0.762   2.553 -22.366  0.00  0.00    +0.139 A 
ATOM      5  O   UNL     1       1.553   3.500 -22.773  0.00  0.00    -0.454 OA
ATOM      6  C   UNL     1       2.842   3.347 -22.700  0.00  0.00    +0.143 A 
ATOM      7  C   UNL     1       3.634   4.295 -23.108  0.00  0.00    +0.092 A 
ATOM      8  C   UNL     1       4.923   4.141 -23.035  0.00  0.00    +0.120 A 
ATOM      9  C   UNL     1       5.420   3.040 -22.555  0.00  0.00    +0.046 A 
ATOM     10  C   UNL     1       4.629   2.093 -22.148  0.00  0.00    +0.019 A 
ATOM     11  C   UNL     1       3.339   2.246 -22.220  0.00  0.00    +0.064 A 
ENDROOT
BRANCH   4  12
ATOM     12  C   UNL     1      -0.527   2.706 -22.439  0.00  0.00    +0.018 A 
ATOM     13  C   UNL     1      -1.300   2.127 -21.568  0.00  0.00    +0.015 A 
ATOM     14  C   UNL     1      -2.589   2.280 -21.641  0.00  0.00    +0.046 A 
ATOM     15  C   UNL     1      -3.104   3.012 -22.584  0.00  0.00    +0.117 A 
ATOM     16  C   UNL     1      -2.332   3.591 -23.453  0.00  0.00    +0.046 A 
ATOM     17  C   UNL     1      -1.043   3.439 -23.381  0.00  0.00    +0.015 A 
BRANCH  15  18
ATOM     18  O   UNL     1      -4.393   3.165 -22.656  0.00  0.00    -0.507 OA
ATOM     19  H   UNL     1      -4.754   3.995 -22.900  0.00  0.00    +0.292 HD
ENDBRANCH  15  18
ENDBRANCH   4  12
BRANCH   8  20
ATOM     20  O   UNL     1       5.714   5.088 -23.442  0.00  0.00    -0.507 OA
ATOM     21  H   UNL     1       5.742   5.318 -24.350  0.00  0.00    +0.292 HD
ENDBRANCH   8  20
TORSDOF 3
ENDMDL
