MODEL 1
REMARK VINA RESULT:    -9.000      0.000      0.000
REMARK INTER + INTRA:         -10.216
REMARK INTER:                 -10.022
REMARK INTRA:                  -0.194
REMARK UNBOUND:                -0.163
REMARK  Name = ZINC000005497781
REMARK  4 active torsions:
REMARK  status: ('A' for Active; 'I' for Inactive)
REMARK    1  A    between atoms: C_1  and  O_2
REMARK    2  A    between atoms: O_2  and  C_3
REMARK    3  A    between atoms: C_3  and  C_5
REMARK    4  A    between atoms: C_16  and  C_17
REMARK                            x       y       z     vdW  Elec       q    Type
REMARK                         _______ _______ _______ _____ _____    ______ ____
ROOT
ATOM      1  C   UNL     1       0.416   2.021 -22.137  0.00  0.00    +0.218 C 
ATOM      2  C   UNL     1      -0.816   2.054 -21.717  0.00  0.00    +0.076 C 
ATOM      3  C   UNL     1      -1.732   2.631 -22.432  0.00  0.00    -0.011 A 
ATOM      4  C   UNL     1      -1.424   3.177 -23.569  0.00  0.00    +0.064 A 
ATOM      5  C   UNL     1      -0.192   3.147 -23.992  0.00  0.00    +0.057 C 
ATOM      6  C   UNL     1       0.117   3.694 -25.129  0.00  0.00    +0.067 C 
ATOM      7  N   UNL     1      -2.507   3.682 -24.083  0.00  0.00    -0.353 N 
ATOM      8  H   UNL     1      -2.573   4.158 -24.942  0.00  0.00    +0.166 HD
ATOM      9  C   UNL     1      -3.486   3.446 -23.263  0.00  0.00    +0.047 A 
ATOM     10  C   UNL     1      -4.752   3.738 -23.312  0.00  0.00    +0.026 A 
ATOM     11  C   UNL     1      -5.540   3.382 -22.343  0.00  0.00    +0.002 A 
ATOM     12  C   UNL     1      -5.062   2.732 -21.322  0.00  0.00    +0.001 A 
ATOM     13  C   UNL     1      -3.797   2.440 -21.271  0.00  0.00    +0.010 A 
ATOM     14  C   UNL     1      -3.009   2.796 -22.242  0.00  0.00    +0.004 A 
ATOM     15  N   UNL     1       0.724   2.569 -23.275  0.00  0.00    -0.272 NA
ENDROOT
BRANCH   1  16
ATOM     16  C   UNL     1       1.333   1.444 -21.422  0.00  0.00    +0.332 C 
ATOM     17  O   UNL     1       1.213   1.393 -20.128  0.00  0.00    -0.248 OA
BRANCH  16  19
ATOM     18  C   UNL     1       3.438   0.652 -21.302  0.00  0.00    +0.280 C 
ATOM     19  O   UNL     1       2.371   0.916 -21.999  0.00  0.00    -0.466 OA
ENDBRANCH  16  19
ENDBRANCH   1  16
TORSDOF 2
ENDMDL
MODEL 2
REMARK VINA RESULT:    -8.585      1.904      2.952
REMARK INTER + INTRA:          -9.752
REMARK INTER:                  -9.774
REMARK INTRA:                   0.021
REMARK UNBOUND:                -0.163
REMARK  Name = ZINC000005497781
REMARK  4 active torsions:
REMARK  status: ('A' for Active; 'I' for Inactive)
REMARK    1  A    between atoms: C_1  and  O_2
REMARK    2  A    between atoms: O_2  and  C_3
REMARK    3  A    between atoms: C_3  and  C_5
REMARK    4  A    between atoms: C_16  and  C_17
REMARK                            x       y       z     vdW  Elec       q    Type
REMARK                         _______ _______ _______ _____ _____    ______ ____
ROOT
ATOM      1  C   UNL     1       0.519   2.626 -24.182  0.00  0.00    +0.218 C 
ATOM      2  C   UNL     1      -0.656   3.077 -24.517  0.00  0.00    +0.076 C 
ATOM      3  C   UNL     1      -1.650   2.981 -23.690  0.00  0.00    -0.011 A 
ATOM      4  C   UNL     1      -1.478   2.435 -22.524  0.00  0.00    +0.064 A 
ATOM      5  C   UNL     1      -0.305   1.982 -22.185  0.00  0.00    +0.057 C 
ATOM      6  C   UNL     1      -0.132   1.436 -21.019  0.00  0.00    +0.067 C 
ATOM      7  N   UNL     1      -2.616   2.460 -21.893  0.00  0.00    -0.353 N 
ATOM      8  H   UNL     1      -2.783   2.114 -20.987  0.00  0.00    +0.166 HD
ATOM      9  C   UNL     1      -3.491   3.023 -22.670  0.00  0.00    +0.047 A 
ATOM     10  C   UNL     1      -4.754   3.284 -22.511  0.00  0.00    +0.026 A 
ATOM     11  C   UNL     1      -5.423   3.867 -23.460  0.00  0.00    +0.002 A 
ATOM     12  C   UNL     1      -4.828   4.189 -24.571  0.00  0.00    +0.001 A 
ATOM     13  C   UNL     1      -3.565   3.928 -24.731  0.00  0.00    +0.010 A 
ATOM     14  C   UNL     1      -2.896   3.345 -23.781  0.00  0.00    +0.004 A 
ATOM     15  N   UNL     1       0.690   2.079 -23.015  0.00  0.00    -0.272 NA
ENDROOT
BRANCH   1  16
ATOM     16  C   UNL     1       1.515   2.722 -25.009  0.00  0.00    +0.332 C 
ATOM     17  O   UNL     1       1.567   3.710 -25.852  0.00  0.00    -0.248 OA
BRANCH  16  19
ATOM     18  C   UNL     1       3.585   2.084 -24.395  0.00  0.00    +0.280 C 
ATOM     19  O   UNL     1       2.460   1.829 -24.995  0.00  0.00    -0.466 OA
ENDBRANCH  16  19
ENDBRANCH   1  16
TORSDOF 2
ENDMDL
MODEL 3
REMARK VINA RESULT:    -8.238      2.802      5.361
REMARK INTER + INTRA:          -9.365
REMARK INTER:                  -9.272
REMARK INTRA:                  -0.093
REMARK UNBOUND:                -0.163
REMARK  Name = ZINC000005497781
REMARK  4 active torsions:
REMARK  status: ('A' for Active; 'I' for Inactive)
REMARK    1  A    between atoms: C_1  and  O_2
REMARK    2  A    between atoms: O_2  and  C_3
REMARK    3  A    between atoms: C_3  and  C_5
REMARK    4  A    between atoms: C_16  and  C_17
REMARK                            x       y       z     vdW  Elec       q    Type
REMARK                         _______ _______ _______ _____ _____    ______ ____
ROOT
ATOM      1  C   UNL     1      -3.663   3.403 -23.307  0.00  0.00    +0.218 C 
ATOM      2  C   UNL     1      -2.395   3.405 -23.012  0.00  0.00    +0.076 C 
ATOM      3  C   UNL     1      -1.506   3.423 -23.956  0.00  0.00    -0.011 A 
ATOM      4  C   UNL     1      -1.878   3.439 -25.200  0.00  0.00    +0.064 A 
ATOM      5  C   UNL     1      -3.146   3.437 -25.501  0.00  0.00    +0.057 C 
ATOM      6  C   UNL     1      -3.518   3.454 -26.745  0.00  0.00    +0.067 C 
ATOM      7  N   UNL     1      -0.809   3.455 -25.943  0.00  0.00    -0.353 N 
ATOM      8  H   UNL     1      -0.787   3.470 -26.926  0.00  0.00    +0.166 HD
ATOM      9  C   UNL     1       0.223   3.449 -25.155  0.00  0.00    +0.047 A 
ATOM     10  C   UNL     1       1.501   3.459 -25.397  0.00  0.00    +0.026 A 
ATOM     11  C   UNL     1       2.350   3.449 -24.412  0.00  0.00    +0.002 A 
ATOM     12  C   UNL     1       1.920   3.429 -23.185  0.00  0.00    +0.001 A 
ATOM     13  C   UNL     1       0.643   3.419 -22.942  0.00  0.00    +0.010 A 
ATOM     14  C   UNL     1      -0.205   3.429 -23.927  0.00  0.00    +0.004 A 
ATOM     15  N   UNL     1      -4.034   3.419 -24.553  0.00  0.00    -0.272 NA
ENDROOT
BRANCH   1  16
ATOM     16  C   UNL     1      -4.553   3.385 -22.362  0.00  0.00    +0.332 C 
ATOM     17  O   UNL     1      -5.815   3.493 -22.654  0.00  0.00    -0.248 OA
BRANCH  16  19
ATOM     18  C   UNL     1      -4.370   2.133 -20.499  0.00  0.00    +0.280 C 
ATOM     19  O   UNL     1      -4.182   3.259 -21.123  0.00  0.00    -0.466 OA
ENDBRANCH  16  19
ENDBRANCH   1  16
TORSDOF 2
ENDMDL
MODEL 4
REMARK VINA RESULT:    -8.037      3.158      5.796
REMARK INTER + INTRA:          -9.140
REMARK INTER:                  -9.041
REMARK INTRA:                  -0.099
REMARK UNBOUND:                -0.163
REMARK  Name = ZINC000005497781
REMARK  4 active torsions:
REMARK  status: ('A' for Active; 'I' for Inactive)
REMARK    1  A    between atoms: C_1  and  O_2
REMARK    2  A    between atoms: O_2  and  C_3
REMARK    3  A    between atoms: C_3  and  C_5
REMARK    4  A    between atoms: C_16  and  C_17
REMARK                            x       y       z     vdW  Elec       q    Type
REMARK                         _______ _______ _______ _____ _____    ______ ____
ROOT
ATOM      1  C   UNL     1      -3.255   3.456 -24.212  0.00  0.00    +0.218 C 
ATOM      2  C   UNL     1      -1.981   3.189 -24.242  0.00  0.00    +0.076 C 
ATOM      3  C   UNL     1      -1.389   2.716 -23.190  0.00  0.00    -0.011 A 
ATOM      4  C   UNL     1      -2.065   2.507 -22.101  0.00  0.00    +0.064 A 
ATOM      5  C   UNL     1      -3.341   2.773 -22.066  0.00  0.00    +0.057 C 
ATOM      6  C   UNL     1      -4.017   2.563 -20.977  0.00  0.00    +0.067 C 
ATOM      7  N   UNL     1      -1.251   2.036 -21.202  0.00  0.00    -0.353 N 
ATOM      8  H   UNL     1      -1.488   1.786 -20.280  0.00  0.00    +0.166 HD
ATOM      9  C   UNL     1      -0.071   1.955 -21.737  0.00  0.00    +0.047 A 
ATOM     10  C   UNL     1       1.072   1.552 -21.265  0.00  0.00    +0.026 A 
ATOM     11  C   UNL     1       2.130   1.569 -22.019  0.00  0.00    +0.002 A 
ATOM     12  C   UNL     1       2.046   1.989 -23.247  0.00  0.00    +0.001 A 
ATOM     13  C   UNL     1       0.904   2.392 -23.720  0.00  0.00    +0.010 A 
ATOM     14  C   UNL     1      -0.154   2.375 -22.965  0.00  0.00    +0.004 A 
ATOM     15  N   UNL     1      -3.931   3.246 -23.121  0.00  0.00    -0.272 NA
ENDROOT
BRANCH   1  16
ATOM     16  C   UNL     1      -3.847   3.929 -25.266  0.00  0.00    +0.332 C 
ATOM     17  O   UNL     1      -4.260   5.162 -25.281  0.00  0.00    -0.248 OA
BRANCH  16  19
ATOM     18  C   UNL     1      -3.396   3.424 -27.413  0.00  0.00    +0.280 C 
ATOM     19  O   UNL     1      -4.029   3.171 -26.305  0.00  0.00    -0.466 OA
ENDBRANCH  16  19
ENDBRANCH   1  16
TORSDOF 2
ENDMDL
MODEL 5
REMARK VINA RESULT:    -7.550      2.081      2.837
REMARK INTER + INTRA:          -8.596
REMARK INTER:                  -8.405
REMARK INTRA:                  -0.191
REMARK UNBOUND:                -0.163
REMARK  Name = ZINC000005497781
REMARK  4 active torsions:
REMARK  status: ('A' for Active; 'I' for Inactive)
REMARK    1  A    between atoms: C_1  and  O_2
REMARK    2  A    between atoms: O_2  and  C_3
REMARK    3  A    between atoms: C_3  and  C_5
REMARK    4  A    between atoms: C_16  and  C_17
REMARK                            x       y       z     vdW  Elec       q    Type
REMARK                         _______ _______ _______ _____ _____    ______ ____
ROOT
ATOM      1  C   UNL     1       2.579   2.377 -22.483  0.00  0.00    +0.218 C 
ATOM      2  C   UNL     1       1.326   2.203 -22.790  0.00  0.00    +0.076 C 
ATOM      3  C   UNL     1       0.603   3.209 -23.171  0.00  0.00    -0.011 A 
ATOM      4  C   UNL     1       1.125   4.395 -23.249  0.00  0.00    +0.064 A 
ATOM      5  C   UNL     1       2.379   4.575 -22.943  0.00  0.00    +0.057 C 
ATOM      6  C   UNL     1       2.903   5.761 -23.021  0.00  0.00    +0.067 C 
ATOM      7  N   UNL     1       0.203   5.220 -23.652  0.00  0.00    -0.353 N 
ATOM      8  H   UNL     1       0.314   6.186 -23.800  0.00  0.00    +0.166 HD
ATOM      9  C   UNL     1      -0.891   4.541 -23.822  0.00  0.00    +0.047 A 
ATOM     10  C   UNL     1      -2.082   4.893 -24.209  0.00  0.00    +0.026 A 
ATOM     11  C   UNL     1      -3.026   4.005 -24.301  0.00  0.00    +0.002 A 
ATOM     12  C   UNL     1      -2.780   2.763 -24.005  0.00  0.00    +0.001 A 
ATOM     13  C   UNL     1      -1.591   2.410 -23.617  0.00  0.00    +0.010 A 
ATOM     14  C   UNL     1      -0.646   3.299 -23.526  0.00  0.00    +0.004 A 
ATOM     15  N   UNL     1       3.102   3.565 -22.561  0.00  0.00    -0.272 NA
ENDROOT
BRANCH   1  16
ATOM     16  C   UNL     1       3.303   1.370 -22.100  0.00  0.00    +0.332 C 
ATOM     17  O   UNL     1       2.833   0.523 -21.234  0.00  0.00    -0.248 OA
BRANCH  16  19
ATOM     18  C   UNL     1       5.427   0.663 -21.854  0.00  0.00    +0.280 C 
ATOM     19  O   UNL     1       4.499   1.209 -22.584  0.00  0.00    -0.466 OA
ENDBRANCH  16  19
ENDBRANCH   1  16
TORSDOF 2
ENDMDL
MODEL 6
REMARK VINA RESULT:    -7.454      2.701      5.332
REMARK INTER + INTRA:          -8.489
REMARK INTER:                  -8.326
REMARK INTRA:                  -0.163
REMARK UNBOUND:                -0.163
REMARK  Name = ZINC000005497781
REMARK  4 active torsions:
REMARK  status: ('A' for Active; 'I' for Inactive)
REMARK    1  A    between atoms: C_1  and  O_2
REMARK    2  A    between atoms: O_2  and  C_3
REMARK    3  A    between atoms: C_3  and  C_5
REMARK    4  A    between atoms: C_16  and  C_17
REMARK                            x       y       z     vdW  Elec       q    Type
REMARK                         _______ _______ _______ _____ _____    ______ ____
ROOT
ATOM      1  C   UNL     1      -3.431   3.351 -23.570  0.00  0.00    +0.218 C 
ATOM      2  C   UNL     1      -2.597   2.902 -22.677  0.00  0.00    +0.076 C 
ATOM      3  C   UNL     1      -1.356   2.693 -22.992  0.00  0.00    -0.011 A 
ATOM      4  C   UNL     1      -0.941   2.931 -24.199  0.00  0.00    +0.064 A 
ATOM      5  C   UNL     1      -1.772   3.381 -25.096  0.00  0.00    +0.057 C 
ATOM      6  C   UNL     1      -1.357   3.620 -26.303  0.00  0.00    +0.067 C 
ATOM      7  N   UNL     1       0.327   2.644 -24.256  0.00  0.00    -0.353 N 
ATOM      8  H   UNL     1       0.905   2.728 -25.048  0.00  0.00    +0.166 HD
ATOM      9  C   UNL     1       0.695   2.228 -23.082  0.00  0.00    +0.047 A 
ATOM     10  C   UNL     1       1.842   1.824 -22.623  0.00  0.00    +0.026 A 
ATOM     11  C   UNL     1       1.952   1.451 -21.383  0.00  0.00    +0.002 A 
ATOM     12  C   UNL     1       0.913   1.481 -20.601  0.00  0.00    +0.001 A 
ATOM     13  C   UNL     1      -0.234   1.884 -21.059  0.00  0.00    +0.010 A 
ATOM     14  C   UNL     1      -0.344   2.257 -22.300  0.00  0.00    +0.004 A 
ATOM     15  N   UNL     1      -3.014   3.590 -24.778  0.00  0.00    -0.272 NA
ENDROOT
BRANCH   1  16
ATOM     16  C   UNL     1      -4.673   3.560 -23.255  0.00  0.00    +0.332 C 
ATOM     17  O   UNL     1      -5.550   3.792 -24.186  0.00  0.00    -0.248 OA
BRANCH  16  19
ATOM     18  C   UNL     1      -6.024   2.773 -21.634  0.00  0.00    +0.280 C 
ATOM     19  O   UNL     1      -5.040   3.537 -22.008  0.00  0.00    -0.466 OA
ENDBRANCH  16  19
ENDBRANCH   1  16
TORSDOF 2
ENDMDL
MODEL 7
REMARK VINA RESULT:    -7.335      3.064      4.506
REMARK INTER + INTRA:          -8.355
REMARK INTER:                  -8.161
REMARK INTRA:                  -0.194
REMARK UNBOUND:                -0.163
REMARK  Name = ZINC000005497781
REMARK  4 active torsions:
REMARK  status: ('A' for Active; 'I' for Inactive)
REMARK    1  A    between atoms: C_1  and  O_2
REMARK    2  A    between atoms: O_2  and  C_3
REMARK    3  A    between atoms: C_3  and  C_5
REMARK    4  A    between atoms: C_16  and  C_17
REMARK                            x       y       z     vdW  Elec       q    Type
REMARK                         _______ _______ _______ _____ _____    ______ ____
ROOT
ATOM      1  C   UNL     1       4.004   3.645 -22.917  0.00  0.00    +0.218 C 
ATOM      2  C   UNL     1       2.839   4.187 -23.125  0.00  0.00    +0.076 C 
ATOM      3  C   UNL     1       1.760   3.480 -22.998  0.00  0.00    -0.011 A 
ATOM      4  C   UNL     1       1.836   2.228 -22.663  0.00  0.00    +0.064 A 
ATOM      5  C   UNL     1       3.000   1.681 -22.453  0.00  0.00    +0.057 C 
ATOM      6  C   UNL     1       3.078   0.428 -22.117  0.00  0.00    +0.067 C 
ATOM      7  N   UNL     1       0.628   1.749 -22.603  0.00  0.00    -0.353 N 
ATOM      8  H   UNL     1       0.382   0.824 -22.372  0.00  0.00    +0.166 HD
ATOM      9  C   UNL     1      -0.196   2.707 -22.902  0.00  0.00    +0.047 A 
ATOM     10  C   UNL     1      -1.493   2.744 -22.984  0.00  0.00    +0.026 A 
ATOM     11  C   UNL     1      -2.093   3.850 -23.310  0.00  0.00    +0.002 A 
ATOM     12  C   UNL     1      -1.395   4.920 -23.555  0.00  0.00    +0.001 A 
ATOM     13  C   UNL     1      -0.098   4.884 -23.473  0.00  0.00    +0.010 A 
ATOM     14  C   UNL     1       0.501   3.777 -23.147  0.00  0.00    +0.004 A 
ATOM     15  N   UNL     1       4.080   2.391 -22.581  0.00  0.00    -0.272 NA
ENDROOT
BRANCH   1  16
ATOM     16  C   UNL     1       5.085   4.353 -23.044  0.00  0.00    +0.332 C 
ATOM     17  O   UNL     1       6.098   3.880 -23.707  0.00  0.00    -0.248 OA
BRANCH  16  19
ATOM     18  C   UNL     1       6.307   6.016 -22.144  0.00  0.00    +0.280 C 
ATOM     19  O   UNL     1       5.154   5.535 -22.508  0.00  0.00    -0.466 OA
ENDBRANCH  16  19
ENDBRANCH   1  16
TORSDOF 2
ENDMDL
MODEL 8
REMARK VINA RESULT:    -7.334      2.155      5.763
REMARK INTER + INTRA:          -8.354
REMARK INTER:                  -8.159
REMARK INTRA:                  -0.196
REMARK UNBOUND:                -0.163
REMARK  Name = ZINC000005497781
REMARK  4 active torsions:
REMARK  status: ('A' for Active; 'I' for Inactive)
REMARK    1  A    between atoms: C_1  and  O_2
REMARK    2  A    between atoms: O_2  and  C_3
REMARK    3  A    between atoms: C_3  and  C_5
REMARK    4  A    between atoms: C_16  and  C_17
REMARK                            x       y       z     vdW  Elec       q    Type
REMARK                         _______ _______ _______ _____ _____    ______ ____
ROOT
ATOM      1  C   UNL     1      -0.833   2.826 -22.735  0.00  0.00    +0.218 C 
ATOM      2  C   UNL     1       0.124   2.204 -22.108  0.00  0.00    +0.076 C 
ATOM      3  C   UNL     1       1.322   2.183 -22.605  0.00  0.00    -0.011 A 
ATOM      4  C   UNL     1       1.572   2.783 -23.729  0.00  0.00    +0.064 A 
ATOM      5  C   UNL     1       0.617   3.406 -24.360  0.00  0.00    +0.057 C 
ATOM      6  C   UNL     1       0.866   4.006 -25.485  0.00  0.00    +0.067 C 
ATOM      7  N   UNL     1       2.832   2.616 -24.007  0.00  0.00    -0.353 N 
ATOM      8  H   UNL     1       3.301   2.961 -24.799  0.00  0.00    +0.166 HD
ATOM      9  C   UNL     1       3.361   1.912 -23.052  0.00  0.00    +0.047 A 
ATOM     10  C   UNL     1       4.572   1.480 -22.858  0.00  0.00    +0.026 A 
ATOM     11  C   UNL     1       4.852   0.780 -21.800  0.00  0.00    +0.002 A 
ATOM     12  C   UNL     1       3.920   0.512 -20.933  0.00  0.00    +0.001 A 
ATOM     13  C   UNL     1       2.709   0.944 -21.125  0.00  0.00    +0.010 A 
ATOM     14  C   UNL     1       2.429   1.644 -22.185  0.00  0.00    +0.004 A 
ATOM     15  N   UNL     1      -0.582   3.426 -23.860  0.00  0.00    -0.272 NA
ENDROOT
BRANCH   1  16
ATOM     16  C   UNL     1      -2.032   2.847 -22.237  0.00  0.00    +0.332 C 
ATOM     17  O   UNL     1      -3.059   2.653 -23.010  0.00  0.00    -0.248 OA
BRANCH  16  19
ATOM     18  C   UNL     1      -3.299   3.627 -20.547  0.00  0.00    +0.280 C 
ATOM     19  O   UNL     1      -2.205   3.062 -20.967  0.00  0.00    -0.466 OA
ENDBRANCH  16  19
ENDBRANCH   1  16
TORSDOF 2
ENDMDL
MODEL 9
REMARK VINA RESULT:    -7.258      2.953      6.104
REMARK INTER + INTRA:          -8.270
REMARK INTER:                  -8.269
REMARK INTRA:                  -0.001
REMARK UNBOUND:                -0.163
REMARK  Name = ZINC000005497781
REMARK  4 active torsions:
REMARK  status: ('A' for Active; 'I' for Inactive)
REMARK    1  A    between atoms: C_1  and  O_2
REMARK    2  A    between atoms: O_2  and  C_3
REMARK    3  A    between atoms: C_3  and  C_5
REMARK    4  A    between atoms: C_16  and  C_17
REMARK                            x       y       z     vdW  Elec       q    Type
REMARK                         _______ _______ _______ _____ _____    ______ ____
ROOT
ATOM      1  C   UNL     1      -2.013   3.436 -24.373  0.00  0.00    +0.218 C 
ATOM      2  C   UNL     1      -0.777   3.125 -24.642  0.00  0.00    +0.076 C 
ATOM      3  C   UNL     1      -0.004   2.662 -23.709  0.00  0.00    -0.011 A 
ATOM      4  C   UNL     1      -0.459   2.508 -22.503  0.00  0.00    +0.064 A 
ATOM      5  C   UNL     1      -1.695   2.818 -22.229  0.00  0.00    +0.057 C 
ATOM      6  C   UNL     1      -2.151   2.664 -21.022  0.00  0.00    +0.067 C 
ATOM      7  N   UNL     1       0.502   2.036 -21.763  0.00  0.00    -0.353 N 
ATOM      8  H   UNL     1       0.444   1.821 -20.805  0.00  0.00    +0.166 HD
ATOM      9  C   UNL     1       1.552   1.899 -22.515  0.00  0.00    +0.047 A 
ATOM     10  C   UNL     1       2.753   1.471 -22.261  0.00  0.00    +0.026 A 
ATOM     11  C   UNL     1       3.643   1.429 -23.207  0.00  0.00    +0.002 A 
ATOM     12  C   UNL     1       3.332   1.816 -24.409  0.00  0.00    +0.001 A 
ATOM     13  C   UNL     1       2.131   2.244 -24.665  0.00  0.00    +0.010 A 
ATOM     14  C   UNL     1       1.241   2.285 -23.718  0.00  0.00    +0.004 A 
ATOM     15  N   UNL     1      -2.467   3.281 -23.165  0.00  0.00    -0.272 NA
ENDROOT
BRANCH   1  16
ATOM     16  C   UNL     1      -2.787   3.898 -25.307  0.00  0.00    +0.332 C 
ATOM     17  O   UNL     1      -2.685   3.444 -26.521  0.00  0.00    -0.248 OA
BRANCH  16  19
ATOM     18  C   UNL     1      -4.918   4.497 -24.894  0.00  0.00    +0.280 C 
ATOM     19  O   UNL     1      -3.664   4.816 -25.029  0.00  0.00    -0.466 OA
ENDBRANCH  16  19
ENDBRANCH   1  16
TORSDOF 2
ENDMDL
