MODEL 1
REMARK VINA RESULT:   -10.903      0.000      0.000
REMARK INTER + INTRA:         -12.004
REMARK INTER:                 -11.895
REMARK INTRA:                  -0.109
REMARK UNBOUND:                -0.145
REMARK  Name = COc1ccc2c3c1O[C@@H]1[C@H](O)[C@@H](Cl)C=C4[C@@H](C2)N(C)CC[C@]431    ZINC000253505639
REMARK  4 active torsions:
REMARK  status: ('A' for Active; 'I' for Inactive)
REMARK    1  A    between atoms: C_1  and  O_2
REMARK    2  A    between atoms: O_2  and  C_3
REMARK    3  A    between atoms: C_11  and  O_12
REMARK    4  A    between atoms: N_19  and  C_20
REMARK                            x       y       z     vdW  Elec       q    Type
REMARK                         _______ _______ _______ _____ _____    ______ ____
ROOT
ATOM      1  C   UNL     1       1.266   1.744 -22.192  0.00  0.00    +0.162 A 
ATOM      2  C   UNL     1       1.803   2.115 -23.275  0.00  0.00    +0.050 A 
ATOM      3  C   UNL     1       1.126   2.691 -24.156  0.00  0.00    +0.008 A 
ATOM      4  C   UNL     1      -0.094   2.902 -23.961  0.00  0.00    -0.034 A 
ATOM      5  C   UNL     1      -0.650   2.542 -22.891  0.00  0.00    +0.015 A 
ATOM      6  C   UNL     1      -1.867   2.755 -22.704  0.00  0.00    +0.070 C 
ATOM      7  C   UNL     1      -3.243   2.943 -22.375  0.00  0.00    +0.071 C 
ATOM      8  C   UNL     1      -4.032   3.590 -23.349  0.00  0.00    +0.133 C 
ATOM      9  N   UNL     1      -3.400   3.989 -24.545  0.00  0.00    +0.239 N 
ATOM     10  H   UNL     1      -3.925   4.461 -25.281  0.00  0.00    +0.204 HD
ATOM     11  C   UNL     1      -4.028   4.569 -25.458  0.00  0.00    +0.191 C 
ATOM     12  C   UNL     1      -2.008   3.701 -24.664  0.00  0.00    +0.096 C 
ATOM     13  C   UNL     1      -2.549   3.332 -23.582  0.00  0.00    -0.010 C 
ATOM     14  C   UNL     1      -3.780   3.546 -23.388  0.00  0.00    +0.000 C 
ATOM     15  C   UNL     1      -4.320   3.182 -22.318  0.00  0.00    +0.135 C 
ATOM     16 CL   UNL     1      -5.538   3.396 -22.131  0.00  0.00    -0.115 Cl
ATOM     17  C   UNL     1      -3.638   2.599 -21.426  0.00  0.00    +0.178 C 
ATOM     18  C   UNL     1      -2.420   2.386 -21.614  0.00  0.00    +0.219 C 
ATOM     19  O   UNL     1      -1.134   1.815 -21.069  0.00  0.00    -0.481 OA
ATOM     20  C   UNL     1      -0.790   3.490 -24.856  0.00  0.00    +0.094 C 
ATOM     21  C   UNL     1       0.032   1.960 -22.001  0.00  0.00    +0.167 A 
ENDROOT
BRANCH   1  23
ATOM     22  C   UNL     1       3.084   0.725 -21.594  0.00  0.00    +0.277 C 
ATOM     23  O   UNL     1       1.947   1.168 -21.315  0.00  0.00    -0.491 OA
ENDBRANCH   1  23
BRANCH  17  24
ATOM     24  O   UNL     1      -4.181   2.236 -20.357  0.00  0.00    -0.386 OA
ATOM     25  H   UNL     1      -4.991   1.742 -20.558  0.00  0.00    +0.210 HD
ENDBRANCH  17  24
TORSDOF 2
ENDMDL
MODEL 2
REMARK VINA RESULT:   -10.808      2.144      4.853
REMARK INTER + INTRA:         -11.901
REMARK INTER:                 -11.773
REMARK INTRA:                  -0.129
REMARK UNBOUND:                -0.145
REMARK  Name = COc1ccc2c3c1O[C@@H]1[C@H](O)[C@@H](Cl)C=C4[C@@H](C2)N(C)CC[C@]431    ZINC000253505639
REMARK  4 active torsions:
REMARK  status: ('A' for Active; 'I' for Inactive)
REMARK    1  A    between atoms: C_1  and  O_2
REMARK    2  A    between atoms: O_2  and  C_3
REMARK    3  A    between atoms: C_11  and  O_12
REMARK    4  A    between atoms: N_19  and  C_20
REMARK                            x       y       z     vdW  Elec       q    Type
REMARK                         _______ _______ _______ _____ _____    ______ ____
ROOT
ATOM      1  C   UNL     1      -4.548   3.430 -22.472  0.00  0.00    +0.162 A 
ATOM      2  C   UNL     1      -4.812   3.926 -23.605  0.00  0.00    +0.050 A 
ATOM      3  C   UNL     1      -3.927   4.007 -24.485  0.00  0.00    +0.008 A 
ATOM      4  C   UNL     1      -2.769   3.594 -24.242  0.00  0.00    -0.034 A 
ATOM      5  C   UNL     1      -2.483   3.097 -23.121  0.00  0.00    +0.015 A 
ATOM      6  C   UNL     1      -1.326   2.686 -22.884  0.00  0.00    +0.070 C 
ATOM      7  C   UNL     1      -0.048   2.186 -22.497  0.00  0.00    +0.071 C 
ATOM      8  C   UNL     1       0.972   2.264 -23.470  0.00  0.00    +0.133 C 
ATOM      9  N   UNL     1       0.640   2.823 -24.722  0.00  0.00    +0.239 N 
ATOM     10  H   UNL     1       1.340   2.903 -25.459  0.00  0.00    +0.204 HD
ATOM     11  C   UNL     1       1.485   2.929 -25.638  0.00  0.00    +0.191 C 
ATOM     12  C   UNL     1      -0.705   3.262 -24.895  0.00  0.00    +0.096 C 
ATOM     13  C   UNL     1      -0.437   2.766 -23.762  0.00  0.00    -0.010 C 
ATOM     14  C   UNL     1       0.732   2.349 -23.518  0.00  0.00    +0.000 C 
ATOM     15  C   UNL     1       1.002   1.856 -22.399  0.00  0.00    +0.135 C 
ATOM     16 CL   UNL     1       2.160   1.446 -22.163  0.00  0.00    -0.115 Cl
ATOM     17  C   UNL     1       0.109   1.773 -21.507  0.00  0.00    +0.178 C 
ATOM     18  C   UNL     1      -1.048   2.184 -21.745  0.00  0.00    +0.219 C 
ATOM     19  O   UNL     1      -2.452   2.384 -21.231  0.00  0.00    -0.481 OA
ATOM     20  C   UNL     1      -1.862   3.675 -25.136  0.00  0.00    +0.094 C 
ATOM     21  C   UNL     1      -3.376   3.014 -22.231  0.00  0.00    +0.167 A 
ENDROOT
BRANCH   1  23
ATOM     22  C   UNL     1      -6.448   2.640 -21.790  0.00  0.00    +0.277 C 
ATOM     23  O   UNL     1      -5.436   3.351 -21.595  0.00  0.00    -0.491 OA
ENDBRANCH   1  23
BRANCH  17  24
ATOM     24  O   UNL     1       0.383   1.280 -20.388  0.00  0.00    -0.386 OA
ATOM     25  H   UNL     1       1.172   1.714 -20.029  0.00  0.00    +0.210 HD
ENDBRANCH  17  24
TORSDOF 2
ENDMDL
MODEL 3
REMARK VINA RESULT:   -10.788      1.973      2.951
REMARK INTER + INTRA:         -11.879
REMARK INTER:                 -11.766
REMARK INTRA:                  -0.114
REMARK UNBOUND:                -0.145
REMARK  Name = COc1ccc2c3c1O[C@@H]1[C@H](O)[C@@H](Cl)C=C4[C@@H](C2)N(C)CC[C@]431    ZINC000253505639
REMARK  4 active torsions:
REMARK  status: ('A' for Active; 'I' for Inactive)
REMARK    1  A    between atoms: C_1  and  O_2
REMARK    2  A    between atoms: O_2  and  C_3
REMARK    3  A    between atoms: C_11  and  O_12
REMARK    4  A    between atoms: N_19  and  C_20
REMARK                            x       y       z     vdW  Elec       q    Type
REMARK                         _______ _______ _______ _____ _____    ______ ____
ROOT
ATOM      1  C   UNL     1       1.399   1.823 -22.720  0.00  0.00    +0.162 A 
ATOM      2  C   UNL     1       1.204   1.571 -21.496  0.00  0.00    +0.050 A 
ATOM      3  C   UNL     1       0.071   1.726 -20.988  0.00  0.00    +0.008 A 
ATOM      4  C   UNL     1      -0.877   2.135 -21.699  0.00  0.00    -0.034 A 
ATOM      5  C   UNL     1      -0.705   2.393 -22.919  0.00  0.00    +0.015 A 
ATOM      6  C   UNL     1      -1.655   2.801 -23.622  0.00  0.00    +0.070 C 
ATOM      7  C   UNL     1      -2.657   3.270 -24.523  0.00  0.00    +0.071 C 
ATOM      8  C   UNL     1      -3.946   3.455 -23.979  0.00  0.00    +0.133 C 
ATOM      9  N   UNL     1      -4.127   3.163 -22.611  0.00  0.00    +0.239 N 
ATOM     10  H   UNL     1      -5.039   3.279 -22.169  0.00  0.00    +0.204 HD
ATOM     11  C   UNL     1      -5.237   3.300 -22.051  0.00  0.00    +0.191 C 
ATOM     12  C   UNL     1      -2.983   2.704 -21.894  0.00  0.00    +0.096 C 
ATOM     13  C   UNL     1      -2.791   2.957 -23.118  0.00  0.00    -0.010 C 
ATOM     14  C   UNL     1      -3.749   3.370 -23.833  0.00  0.00    +0.000 C 
ATOM     15  C   UNL     1      -3.564   3.623 -25.046  0.00  0.00    +0.135 C 
ATOM     16 CL   UNL     1      -4.515   4.031 -25.749  0.00  0.00    -0.115 Cl
ATOM     17  C   UNL     1      -2.419   3.467 -25.562  0.00  0.00    +0.178 C 
ATOM     18  C   UNL     1      -1.470   3.059 -24.858  0.00  0.00    +0.219 C 
ATOM     19  O   UNL     1      -0.011   2.682 -24.794  0.00  0.00    -0.481 OA
ATOM     20  C   UNL     1      -2.035   2.295 -21.186  0.00  0.00    +0.094 C 
ATOM     21  C   UNL     1       0.438   2.237 -23.434  0.00  0.00    +0.167 A 
ENDROOT
BRANCH   1  23
ATOM     22  C   UNL     1       3.288   0.761 -22.800  0.00  0.00    +0.277 C 
ATOM     23  O   UNL     1       2.534   1.667 -23.223  0.00  0.00    -0.491 OA
ENDBRANCH   1  23
BRANCH  17  24
ATOM     24  O   UNL     1      -2.238   3.720 -26.776  0.00  0.00    -0.386 OA
ATOM     25  H   UNL     1      -3.046   4.104 -27.149  0.00  0.00    +0.210 HD
ENDBRANCH  17  24
TORSDOF 2
ENDMDL
MODEL 4
REMARK VINA RESULT:   -10.330      3.298      5.936
REMARK INTER + INTRA:         -11.382
REMARK INTER:                 -11.261
REMARK INTRA:                  -0.120
REMARK UNBOUND:                -0.145
REMARK  Name = COc1ccc2c3c1O[C@@H]1[C@H](O)[C@@H](Cl)C=C4[C@@H](C2)N(C)CC[C@]431    ZINC000253505639
REMARK  4 active torsions:
REMARK  status: ('A' for Active; 'I' for Inactive)
REMARK    1  A    between atoms: C_1  and  O_2
REMARK    2  A    between atoms: O_2  and  C_3
REMARK    3  A    between atoms: C_11  and  O_12
REMARK    4  A    between atoms: N_19  and  C_20
REMARK                            x       y       z     vdW  Elec       q    Type
REMARK                         _______ _______ _______ _____ _____    ______ ____
ROOT
ATOM      1  C   UNL     1      -1.768   3.316 -23.275  0.00  0.00    +0.162 A 
ATOM      2  C   UNL     1      -1.796   4.574 -23.395  0.00  0.00    +0.050 A 
ATOM      3  C   UNL     1      -0.734   5.237 -23.391  0.00  0.00    +0.008 A 
ATOM      4  C   UNL     1       0.365   4.648 -23.267  0.00  0.00    -0.034 A 
ATOM      5  C   UNL     1       0.417   3.396 -23.147  0.00  0.00    +0.015 A 
ATOM      6  C   UNL     1       1.517   2.814 -23.024  0.00  0.00    +0.070 C 
ATOM      7  C   UNL     1       2.706   2.041 -22.877  0.00  0.00    +0.071 C 
ATOM      8  C   UNL     1       3.920   2.760 -22.869  0.00  0.00    +0.133 C 
ATOM      9  N   UNL     1       3.850   4.163 -23.005  0.00  0.00    +0.239 N 
ATOM     10  H   UNL     1       4.698   4.729 -23.005  0.00  0.00    +0.204 HD
ATOM     11  C   UNL     1       4.879   4.874 -23.007  0.00  0.00    +0.191 C 
ATOM     12  C   UNL     1       2.550   4.732 -23.139  0.00  0.00    +0.096 C 
ATOM     13  C   UNL     1       2.581   3.473 -23.019  0.00  0.00    -0.010 C 
ATOM     14  C   UNL     1       3.692   2.881 -22.895  0.00  0.00    +0.000 C 
ATOM     15  C   UNL     1       3.728   1.634 -22.776  0.00  0.00    +0.135 C 
ATOM     16 CL   UNL     1       4.829   1.053 -22.653  0.00  0.00    -0.115 Cl
ATOM     17  C   UNL     1       2.657   0.962 -22.779  0.00  0.00    +0.178 C 
ATOM     18  C   UNL     1       1.557   1.544 -22.902  0.00  0.00    +0.219 C 
ATOM     19  O   UNL     1       0.056   1.414 -22.984  0.00  0.00    -0.481 OA
ATOM     20  C   UNL     1       1.451   5.319 -23.262  0.00  0.00    +0.094 C 
ATOM     21  C   UNL     1      -0.654   2.725 -23.151  0.00  0.00    +0.167 A 
ENDROOT
BRANCH   1  23
ATOM     22  C   UNL     1      -3.783   2.999 -22.541  0.00  0.00    +0.277 C 
ATOM     23  O   UNL     1      -2.831   2.657 -23.280  0.00  0.00    -0.491 OA
ENDBRANCH   1  23
BRANCH  17  24
ATOM     24  O   UNL     1       2.697  -0.285 -22.660  0.00  0.00    -0.386 OA
ATOM     25  H   UNL     1       3.484  -0.535 -22.151  0.00  0.00    +0.210 HD
ENDBRANCH  17  24
TORSDOF 2
ENDMDL
MODEL 5
REMARK VINA RESULT:    -9.571      2.520      5.203
REMARK INTER + INTRA:         -10.556
REMARK INTER:                 -10.448
REMARK INTRA:                  -0.108
REMARK UNBOUND:                -0.145
REMARK  Name = COc1ccc2c3c1O[C@@H]1[C@H](O)[C@@H](Cl)C=C4[C@@H](C2)N(C)CC[C@]431    ZINC000253505639
REMARK  4 active torsions:
REMARK  status: ('A' for Active; 'I' for Inactive)
REMARK    1  A    between atoms: C_1  and  O_2
REMARK    2  A    between atoms: O_2  and  C_3
REMARK    3  A    between atoms: C_11  and  O_12
REMARK    4  A    between atoms: N_19  and  C_20
REMARK                            x       y       z     vdW  Elec       q    Type
REMARK                         _______ _______ _______ _____ _____    ______ ____
ROOT
ATOM      1  C   UNL     1      -3.080   3.006 -22.664  0.00  0.00    +0.162 A 
ATOM      2  C   UNL     1      -3.154   3.362 -23.875  0.00  0.00    +0.050 A 
ATOM      3  C   UNL     1      -2.134   3.366 -24.600  0.00  0.00    +0.008 A 
ATOM      4  C   UNL     1      -1.031   3.014 -24.120  0.00  0.00    -0.034 A 
ATOM      5  C   UNL     1      -0.934   2.655 -22.917  0.00  0.00    +0.015 A 
ATOM      6  C   UNL     1       0.169   2.304 -22.445  0.00  0.00    +0.070 C 
ATOM      7  C   UNL     1       1.368   1.884 -21.795  0.00  0.00    +0.071 C 
ATOM      8  C   UNL     1       2.536   1.878 -22.587  0.00  0.00    +0.133 C 
ATOM      9  N   UNL     1       2.416   2.282 -23.933  0.00  0.00    +0.239 N 
ATOM     10  H   UNL     1       3.230   2.295 -24.548  0.00  0.00    +0.204 HD
ATOM     11  C   UNL     1       3.403   2.305 -24.702  0.00  0.00    +0.191 C 
ATOM     12  C   UNL     1       1.116   2.663 -24.377  0.00  0.00    +0.096 C 
ATOM     13  C   UNL     1       1.193   2.306 -23.166  0.00  0.00    -0.010 C 
ATOM     14  C   UNL     1       2.307   1.951 -22.684  0.00  0.00    +0.000 C 
ATOM     15  C   UNL     1       2.388   1.596 -21.486  0.00  0.00    +0.135 C 
ATOM     16 CL   UNL     1       3.492   1.245 -21.015  0.00  0.00    -0.115 Cl
ATOM     17  C   UNL     1       1.358   1.591 -20.751  0.00  0.00    +0.178 C 
ATOM     18  C   UNL     1       0.255   1.942 -21.225  0.00  0.00    +0.219 C 
ATOM     19  O   UNL     1      -1.217   2.162 -20.978  0.00  0.00    -0.481 OA
ATOM     20  C   UNL     1       0.014   3.015 -24.855  0.00  0.00    +0.094 C 
ATOM     21  C   UNL     1      -1.963   2.650 -22.185  0.00  0.00    +0.167 A 
ENDROOT
BRANCH   1  23
ATOM     22  C   UNL     1      -5.193   3.416 -22.402  0.00  0.00    +0.277 C 
ATOM     23  O   UNL     1      -4.103   3.004 -21.944  0.00  0.00    -0.491 OA
ENDBRANCH   1  23
BRANCH  17  24
ATOM     24  O   UNL     1       1.443   1.236 -19.553  0.00  0.00    -0.386 OA
ATOM     25  H   UNL     1       2.378   1.166 -19.303  0.00  0.00    +0.210 HD
ENDBRANCH  17  24
TORSDOF 2
ENDMDL
MODEL 6
REMARK VINA RESULT:    -9.504      2.823      4.237
REMARK INTER + INTRA:         -10.483
REMARK INTER:                 -10.335
REMARK INTRA:                  -0.148
REMARK UNBOUND:                -0.145
REMARK  Name = COc1ccc2c3c1O[C@@H]1[C@H](O)[C@@H](Cl)C=C4[C@@H](C2)N(C)CC[C@]431    ZINC000253505639
REMARK  4 active torsions:
REMARK  status: ('A' for Active; 'I' for Inactive)
REMARK    1  A    between atoms: C_1  and  O_2
REMARK    2  A    between atoms: O_2  and  C_3
REMARK    3  A    between atoms: C_11  and  O_12
REMARK    4  A    between atoms: N_19  and  C_20
REMARK                            x       y       z     vdW  Elec       q    Type
REMARK                         _______ _______ _______ _____ _____    ______ ____
ROOT
ATOM      1  C   UNL     1       4.299   1.706 -22.136  0.00  0.00    +0.162 A 
ATOM      2  C   UNL     1       4.003   1.205 -21.013  0.00  0.00    +0.050 A 
ATOM      3  C   UNL     1       2.811   1.139 -20.640  0.00  0.00    +0.008 A 
ATOM      4  C   UNL     1       1.903   1.573 -21.386  0.00  0.00    -0.034 A 
ATOM      5  C   UNL     1       2.173   2.075 -22.508  0.00  0.00    +0.015 A 
ATOM      6  C   UNL     1       1.262   2.505 -23.248  0.00  0.00    +0.070 C 
ATOM      7  C   UNL     1       0.313   3.028 -24.177  0.00  0.00    +0.071 C 
ATOM      8  C   UNL     1      -1.041   2.967 -23.784  0.00  0.00    +0.133 C 
ATOM      9  N   UNL     1      -1.332   2.403 -22.525  0.00  0.00    +0.239 N 
ATOM     10  H   UNL     1      -2.295   2.335 -22.194  0.00  0.00    +0.204 HD
ATOM     11  C   UNL     1      -2.506   2.311 -22.102  0.00  0.00    +0.191 C 
ATOM     12  C   UNL     1      -0.225   1.940 -21.755  0.00  0.00    +0.096 C 
ATOM     13  C   UNL     1       0.067   2.441 -22.879  0.00  0.00    -0.010 C 
ATOM     14  C   UNL     1      -0.852   2.878 -23.631  0.00  0.00    +0.000 C 
ATOM     15  C   UNL     1      -0.568   3.375 -24.745  0.00  0.00    +0.135 C 
ATOM     16 CL   UNL     1      -1.480   3.806 -25.485  0.00  0.00    -0.115 Cl
ATOM     17  C   UNL     1       0.637   3.444 -25.125  0.00  0.00    +0.178 C 
ATOM     18  C   UNL     1       1.548   3.013 -24.384  0.00  0.00    +0.219 C 
ATOM     19  O   UNL     1       3.027   2.788 -24.194  0.00  0.00    -0.481 OA
ATOM     20  C   UNL     1       0.684   1.508 -21.011  0.00  0.00    +0.094 C 
ATOM     21  C   UNL     1       3.376   2.142 -22.886  0.00  0.00    +0.167 A 
ENDROOT
BRANCH   1  23
ATOM     22  C   UNL     1       6.131   2.840 -22.378  0.00  0.00    +0.277 C 
ATOM     23  O   UNL     1       5.492   1.770 -22.504  0.00  0.00    -0.491 OA
ENDBRANCH   1  23
BRANCH  17  24
ATOM     24  O   UNL     1       0.917   3.942 -26.240  0.00  0.00    -0.386 OA
ATOM     25  H   UNL     1       0.742   4.895 -26.220  0.00  0.00    +0.210 HD
ENDBRANCH  17  24
TORSDOF 2
ENDMDL
MODEL 7
REMARK VINA RESULT:    -9.020      2.116      3.145
REMARK INTER + INTRA:          -9.956
REMARK INTER:                  -9.811
REMARK INTRA:                  -0.145
REMARK UNBOUND:                -0.145
REMARK  Name = COc1ccc2c3c1O[C@@H]1[C@H](O)[C@@H](Cl)C=C4[C@@H](C2)N(C)CC[C@]431    ZINC000253505639
REMARK  4 active torsions:
REMARK  status: ('A' for Active; 'I' for Inactive)
REMARK    1  A    between atoms: C_1  and  O_2
REMARK    2  A    between atoms: O_2  and  C_3
REMARK    3  A    between atoms: C_11  and  O_12
REMARK    4  A    between atoms: N_19  and  C_20
REMARK                            x       y       z     vdW  Elec       q    Type
REMARK                         _______ _______ _______ _____ _____    ______ ____
ROOT
ATOM      1  C   UNL     1       0.808   3.141 -24.167  0.00  0.00    +0.162 A 
ATOM      2  C   UNL     1       1.293   2.514 -23.182  0.00  0.00    +0.050 A 
ATOM      3  C   UNL     1       0.557   2.135 -22.244  0.00  0.00    +0.008 A 
ATOM      4  C   UNL     1      -0.671   2.379 -22.282  0.00  0.00    -0.034 A 
ATOM      5  C   UNL     1      -1.177   3.002 -23.252  0.00  0.00    +0.015 A 
ATOM      6  C   UNL     1      -2.403   3.242 -23.284  0.00  0.00    +0.070 C 
ATOM      7  C   UNL     1      -3.783   3.574 -23.432  0.00  0.00    +0.071 C 
ATOM      8  C   UNL     1      -4.639   3.159 -22.390  0.00  0.00    +0.133 C 
ATOM      9  N   UNL     1      -4.062   2.462 -21.308  0.00  0.00    +0.239 N 
ATOM     10  H   UNL     1      -4.636   2.140 -20.529  0.00  0.00    +0.204 HD
ATOM     11  C   UNL     1      -4.750   2.059 -20.344  0.00  0.00    +0.191 C 
ATOM     12  C   UNL     1      -2.655   2.237 -21.364  0.00  0.00    +0.096 C 
ATOM     13  C   UNL     1      -3.144   2.864 -22.348  0.00  0.00    -0.010 C 
ATOM     14  C   UNL     1      -4.384   3.109 -22.384  0.00  0.00    +0.000 C 
ATOM     15  C   UNL     1      -4.874   3.730 -23.356  0.00  0.00    +0.135 C 
ATOM     16 CL   UNL     1      -6.101   3.970 -23.386  0.00  0.00    -0.115 Cl
ATOM     17  C   UNL     1      -4.132   4.114 -24.305  0.00  0.00    +0.178 C 
ATOM     18  C   UNL     1      -2.905   3.874 -24.273  0.00  0.00    +0.219 C 
ATOM     19  O   UNL     1      -1.569   4.007 -24.960  0.00  0.00    -0.481 OA
ATOM     20  C   UNL     1      -1.428   1.994 -21.328  0.00  0.00    +0.094 C 
ATOM     21  C   UNL     1      -0.435   3.385 -24.200  0.00  0.00    +0.167 A 
ENDROOT
BRANCH   1  23
ATOM     22  C   UNL     1       2.133   4.623 -25.031  0.00  0.00    +0.277 C 
ATOM     23  O   UNL     1       1.548   3.519 -25.102  0.00  0.00    -0.491 OA
ENDBRANCH   1  23
BRANCH  17  24
ATOM     24  O   UNL     1      -4.624   4.735 -25.276  0.00  0.00    -0.386 OA
ATOM     25  H   UNL     1      -5.404   5.229 -24.980  0.00  0.00    +0.210 HD
ENDBRANCH  17  24
TORSDOF 2
ENDMDL
MODEL 8
REMARK VINA RESULT:    -8.789      3.554      6.441
REMARK INTER + INTRA:          -9.705
REMARK INTER:                  -9.595
REMARK INTRA:                  -0.110
REMARK UNBOUND:                -0.145
REMARK  Name = COc1ccc2c3c1O[C@@H]1[C@H](O)[C@@H](Cl)C=C4[C@@H](C2)N(C)CC[C@]431    ZINC000253505639
REMARK  4 active torsions:
REMARK  status: ('A' for Active; 'I' for Inactive)
REMARK    1  A    between atoms: C_1  and  O_2
REMARK    2  A    between atoms: O_2  and  C_3
REMARK    3  A    between atoms: C_11  and  O_12
REMARK    4  A    between atoms: N_19  and  C_20
REMARK                            x       y       z     vdW  Elec       q    Type
REMARK                         _______ _______ _______ _____ _____    ______ ____
ROOT
ATOM      1  C   UNL     1      -1.352   3.850 -23.702  0.00  0.00    +0.162 A 
ATOM      2  C   UNL     1      -1.972   2.853 -23.232  0.00  0.00    +0.050 A 
ATOM      3  C   UNL     1      -1.357   1.956 -22.612  0.00  0.00    +0.008 A 
ATOM      4  C   UNL     1      -0.117   2.048 -22.458  0.00  0.00    -0.034 A 
ATOM      5  C   UNL     1       0.521   3.032 -22.917  0.00  0.00    +0.015 A 
ATOM      6  C   UNL     1       1.758   3.117 -22.759  0.00  0.00    +0.070 C 
ATOM      7  C   UNL     1       3.165   3.325 -22.644  0.00  0.00    +0.071 C 
ATOM      8  C   UNL     1       3.886   2.330 -21.950  0.00  0.00    +0.133 C 
ATOM      9  N   UNL     1       3.162   1.233 -21.440  0.00  0.00    +0.239 N 
ATOM     10  H   UNL     1       3.636   0.487 -20.931  0.00  0.00    +0.204 HD
ATOM     11  C   UNL     1       3.726   0.308 -20.813  0.00  0.00    +0.191 C 
ATOM     12  C   UNL     1       1.755   1.226 -21.671  0.00  0.00    +0.096 C 
ATOM     13  C   UNL     1       2.378   2.222 -22.140  0.00  0.00    -0.010 C 
ATOM     14  C   UNL     1       3.630   2.313 -21.983  0.00  0.00    +0.000 C 
ATOM     15  C   UNL     1       4.251   3.297 -22.446  0.00  0.00    +0.135 C 
ATOM     16 CL   UNL     1       5.489   3.382 -22.287  0.00  0.00    -0.115 Cl
ATOM     17  C   UNL     1       3.632   4.205 -23.072  0.00  0.00    +0.178 C 
ATOM     18  C   UNL     1       2.394   4.118 -23.230  0.00  0.00    +0.219 C 
ATOM     19  O   UNL     1       1.143   4.741 -23.797  0.00  0.00    -0.481 OA
ATOM     20  C   UNL     1       0.516   1.136 -21.827  0.00  0.00    +0.094 C 
ATOM     21  C   UNL     1      -0.099   3.938 -23.543  0.00  0.00    +0.167 A 
ENDROOT
BRANCH   1  23
ATOM     22  C   UNL     1      -3.118   4.516 -24.769  0.00  0.00    +0.277 C 
ATOM     23  O   UNL     1      -1.971   4.744 -24.320  0.00  0.00    -0.491 OA
ENDBRANCH   1  23
BRANCH  17  24
ATOM     24  O   UNL     1       4.256   5.188 -23.534  0.00  0.00    -0.386 OA
ATOM     25  H   UNL     1       5.120   4.895 -23.863  0.00  0.00    +0.210 HD
ENDBRANCH  17  24
TORSDOF 2
ENDMDL
MODEL 9
REMARK VINA RESULT:    -8.605      3.059      4.494
REMARK INTER + INTRA:          -9.505
REMARK INTER:                  -9.360
REMARK INTRA:                  -0.145
REMARK UNBOUND:                -0.145
REMARK  Name = COc1ccc2c3c1O[C@@H]1[C@H](O)[C@@H](Cl)C=C4[C@@H](C2)N(C)CC[C@]431    ZINC000253505639
REMARK  4 active torsions:
REMARK  status: ('A' for Active; 'I' for Inactive)
REMARK    1  A    between atoms: C_1  and  O_2
REMARK    2  A    between atoms: O_2  and  C_3
REMARK    3  A    between atoms: C_11  and  O_12
REMARK    4  A    between atoms: N_19  and  C_20
REMARK                            x       y       z     vdW  Elec       q    Type
REMARK                         _______ _______ _______ _____ _____    ______ ____
ROOT
ATOM      1  C   UNL     1       4.937   3.672 -23.222  0.00  0.00    +0.162 A 
ATOM      2  C   UNL     1       5.302   2.524 -22.836  0.00  0.00    +0.050 A 
ATOM      3  C   UNL     1       4.458   1.685 -22.451  0.00  0.00    +0.008 A 
ATOM      4  C   UNL     1       3.241   1.985 -22.448  0.00  0.00    -0.034 A 
ATOM      5  C   UNL     1       2.855   3.122 -22.827  0.00  0.00    +0.015 A 
ATOM      6  C   UNL     1       1.639   3.415 -22.822  0.00  0.00    +0.070 C 
ATOM      7  C   UNL     1       0.286   3.864 -22.860  0.00  0.00    +0.071 C 
ATOM      8  C   UNL     1      -0.689   2.939 -22.432  0.00  0.00    +0.133 C 
ATOM      9  N   UNL     1      -0.246   1.669 -22.009  0.00  0.00    +0.239 N 
ATOM     10  H   UNL     1      -0.910   0.964 -21.690  0.00  0.00    +0.204 HD
ATOM     11  C   UNL     1      -1.046   0.792 -21.614  0.00  0.00    +0.191 C 
ATOM     12  C   UNL     1       1.159   1.431 -22.052  0.00  0.00    +0.096 C 
ATOM     13  C   UNL     1       0.791   2.578 -22.437  0.00  0.00    -0.010 C 
ATOM     14  C   UNL     1      -0.437   2.879 -22.433  0.00  0.00    +0.000 C 
ATOM     15  C   UNL     1      -0.807   4.014 -22.813  0.00  0.00    +0.135 C 
ATOM     16 CL   UNL     1      -2.024   4.306 -22.807  0.00  0.00    -0.115 Cl
ATOM     17  C   UNL     1       0.044   4.864 -23.203  0.00  0.00    +0.178 C 
ATOM     18  C   UNL     1       1.260   4.570 -23.208  0.00  0.00    +0.219 C 
ATOM     19  O   UNL     1       2.670   5.017 -23.502  0.00  0.00    -0.481 OA
ATOM     20  C   UNL     1       2.375   1.133 -22.056  0.00  0.00    +0.094 C 
ATOM     21  C   UNL     1       3.706   3.970 -23.216  0.00  0.00    +0.167 A 
ENDROOT
BRANCH   1  23
ATOM     22  C   UNL     1       6.363   5.242 -22.773  0.00  0.00    +0.277 C 
ATOM     23  O   UNL     1       5.785   4.508 -23.606  0.00  0.00    -0.491 OA
ENDBRANCH   1  23
BRANCH  17  24
ATOM     24  O   UNL     1      -0.329   5.998 -23.582  0.00  0.00    -0.386 OA
ATOM     25  H   UNL     1       0.301   6.345 -24.233  0.00  0.00    +0.210 HD
ENDBRANCH  17  24
TORSDOF 2
ENDMDL
