MODEL 1
REMARK VINA RESULT:   -11.179      0.000      0.000
REMARK INTER + INTRA:         -12.000
REMARK INTER:                 -11.891
REMARK INTRA:                  -0.109
REMARK UNBOUND:                 0.160
REMARK  Name = COc1ccc2c3c1O[C@@H]1[C@H](O)[C@H](Cl)C=C4[C@H](C2)N(C)CC[C@]431      ZINC000100393474
REMARK  4 active torsions:
REMARK  status: ('A' for Active; 'I' for Inactive)
REMARK    1  A    between atoms: C_1  and  O_2
REMARK    2  A    between atoms: O_2  and  C_3
REMARK    3  A    between atoms: C_11  and  O_12
REMARK    4  A    between atoms: N_19  and  C_20
REMARK                            x       y       z     vdW  Elec       q    Type
REMARK                         _______ _______ _______ _____ _____    ______ ____
ROOT
ATOM      1  C   UNL     1       1.248   1.741 -22.172  0.00  0.00    +0.162 A 
ATOM      2  C   UNL     1       1.790   2.102 -23.256  0.00  0.00    +0.050 A 
ATOM      3  C   UNL     1       1.117   2.669 -24.145  0.00  0.00    +0.008 A 
ATOM      4  C   UNL     1      -0.104   2.882 -23.959  0.00  0.00    -0.034 A 
ATOM      5  C   UNL     1      -0.664   2.532 -22.887  0.00  0.00    +0.015 A 
ATOM      6  C   UNL     1      -1.883   2.748 -22.707  0.00  0.00    +0.070 C 
ATOM      7  C   UNL     1      -3.260   2.938 -22.387  0.00  0.00    +0.071 C 
ATOM      8  C   UNL     1      -4.045   3.576 -23.371  0.00  0.00    +0.133 C 
ATOM      9  N   UNL     1      -3.407   3.964 -24.567  0.00  0.00    +0.239 N 
ATOM     10  H   UNL     1      -3.929   4.428 -25.310  0.00  0.00    +0.204 HD
ATOM     11  C   UNL     1      -4.031   4.534 -25.489  0.00  0.00    +0.191 C 
ATOM     12  C   UNL     1      -2.015   3.674 -24.677  0.00  0.00    +0.096 C 
ATOM     13  C   UNL     1      -2.560   3.315 -23.594  0.00  0.00    -0.010 C 
ATOM     14  C   UNL     1      -3.792   3.531 -23.408  0.00  0.00    +0.000 C 
ATOM     15  C   UNL     1      -4.337   3.178 -22.336  0.00  0.00    +0.135 C 
ATOM     16 CL   UNL     1      -5.556   3.394 -22.157  0.00  0.00    -0.115 Cl
ATOM     17  C   UNL     1      -3.659   2.604 -21.436  0.00  0.00    +0.178 C 
ATOM     18  C   UNL     1      -2.440   2.389 -21.617  0.00  0.00    +0.219 C 
ATOM     19  O   UNL     1      -1.157   1.823 -21.060  0.00  0.00    -0.481 OA
ATOM     20  C   UNL     1      -0.796   3.461 -24.862  0.00  0.00    +0.094 C 
ATOM     21  C   UNL     1       0.014   1.959 -21.988  0.00  0.00    +0.167 A 
ENDROOT
BRANCH   1  23
ATOM     22  C   UNL     1       3.073   0.749 -21.550  0.00  0.00    +0.277 C 
ATOM     23  O   UNL     1       1.925   1.174 -21.286  0.00  0.00    -0.491 OA
ENDBRANCH   1  23
BRANCH  17  24
ATOM     24  O   UNL     1      -4.207   2.251 -20.365  0.00  0.00    -0.386 OA
ATOM     25  H   UNL     1      -4.658   1.403 -20.498  0.00  0.00    +0.210 HD
ENDBRANCH  17  24
TORSDOF 2
ENDMDL
MODEL 2
REMARK VINA RESULT:   -11.076      1.972      2.952
REMARK INTER + INTRA:         -11.887
REMARK INTER:                 -11.774
REMARK INTRA:                  -0.114
REMARK UNBOUND:                 0.160
REMARK  Name = COc1ccc2c3c1O[C@@H]1[C@H](O)[C@H](Cl)C=C4[C@H](C2)N(C)CC[C@]431      ZINC000100393474
REMARK  4 active torsions:
REMARK  status: ('A' for Active; 'I' for Inactive)
REMARK    1  A    between atoms: C_1  and  O_2
REMARK    2  A    between atoms: O_2  and  C_3
REMARK    3  A    between atoms: C_11  and  O_12
REMARK    4  A    between atoms: N_19  and  C_20
REMARK                            x       y       z     vdW  Elec       q    Type
REMARK                         _______ _______ _______ _____ _____    ______ ____
ROOT
ATOM      1  C   UNL     1       1.409   1.828 -22.719  0.00  0.00    +0.162 A 
ATOM      2  C   UNL     1       1.210   1.568 -21.497  0.00  0.00    +0.050 A 
ATOM      3  C   UNL     1       0.077   1.722 -20.991  0.00  0.00    +0.008 A 
ATOM      4  C   UNL     1      -0.869   2.137 -21.701  0.00  0.00    -0.034 A 
ATOM      5  C   UNL     1      -0.694   2.402 -22.919  0.00  0.00    +0.015 A 
ATOM      6  C   UNL     1      -1.642   2.816 -23.622  0.00  0.00    +0.070 C 
ATOM      7  C   UNL     1      -2.641   3.293 -24.521  0.00  0.00    +0.071 C 
ATOM      8  C   UNL     1      -3.931   3.477 -23.979  0.00  0.00    +0.133 C 
ATOM      9  N   UNL     1      -4.115   3.176 -22.613  0.00  0.00    +0.239 N 
ATOM     10  H   UNL     1      -5.027   3.292 -22.172  0.00  0.00    +0.204 HD
ATOM     11  C   UNL     1      -5.226   3.312 -22.055  0.00  0.00    +0.191 C 
ATOM     12  C   UNL     1      -2.973   2.711 -21.897  0.00  0.00    +0.096 C 
ATOM     13  C   UNL     1      -2.778   2.972 -23.119  0.00  0.00    -0.010 C 
ATOM     14  C   UNL     1      -3.734   3.391 -23.834  0.00  0.00    +0.000 C 
ATOM     15  C   UNL     1      -3.546   3.651 -25.045  0.00  0.00    +0.135 C 
ATOM     16 CL   UNL     1      -4.494   4.065 -25.747  0.00  0.00    -0.115 Cl
ATOM     17  C   UNL     1      -2.400   3.496 -25.559  0.00  0.00    +0.178 C 
ATOM     18  C   UNL     1      -1.453   3.082 -24.855  0.00  0.00    +0.219 C 
ATOM     19  O   UNL     1       0.005   2.702 -24.791  0.00  0.00    -0.481 OA
ATOM     20  C   UNL     1      -2.028   2.296 -21.189  0.00  0.00    +0.094 C 
ATOM     21  C   UNL     1       0.450   2.248 -23.432  0.00  0.00    +0.167 A 
ENDROOT
BRANCH   1  23
ATOM     22  C   UNL     1       3.296   0.763 -22.802  0.00  0.00    +0.277 C 
ATOM     23  O   UNL     1       2.545   1.673 -23.221  0.00  0.00    -0.491 OA
ENDBRANCH   1  23
BRANCH  17  24
ATOM     24  O   UNL     1      -2.216   3.757 -26.770  0.00  0.00    -0.386 OA
ATOM     25  H   UNL     1      -2.938   3.379 -27.296  0.00  0.00    +0.210 HD
ENDBRANCH  17  24
TORSDOF 2
ENDMDL
MODEL 3
REMARK VINA RESULT:   -11.076      2.144      4.855
REMARK INTER + INTRA:         -11.887
REMARK INTER:                 -11.760
REMARK INTRA:                  -0.127
REMARK UNBOUND:                 0.160
REMARK  Name = COc1ccc2c3c1O[C@@H]1[C@H](O)[C@H](Cl)C=C4[C@H](C2)N(C)CC[C@]431      ZINC000100393474
REMARK  4 active torsions:
REMARK  status: ('A' for Active; 'I' for Inactive)
REMARK    1  A    between atoms: C_1  and  O_2
REMARK    2  A    between atoms: O_2  and  C_3
REMARK    3  A    between atoms: C_11  and  O_12
REMARK    4  A    between atoms: N_19  and  C_20
REMARK                            x       y       z     vdW  Elec       q    Type
REMARK                         _______ _______ _______ _____ _____    ______ ____
ROOT
ATOM      1  C   UNL     1      -4.544   3.434 -22.450  0.00  0.00    +0.162 A 
ATOM      2  C   UNL     1      -4.809   3.917 -23.589  0.00  0.00    +0.050 A 
ATOM      3  C   UNL     1      -3.924   3.987 -24.471  0.00  0.00    +0.008 A 
ATOM      4  C   UNL     1      -2.767   3.575 -24.223  0.00  0.00    -0.034 A 
ATOM      5  C   UNL     1      -2.481   3.090 -23.097  0.00  0.00    +0.015 A 
ATOM      6  C   UNL     1      -1.325   2.680 -22.856  0.00  0.00    +0.070 C 
ATOM      7  C   UNL     1      -0.047   2.182 -22.464  0.00  0.00    +0.071 C 
ATOM      8  C   UNL     1       0.972   2.248 -23.438  0.00  0.00    +0.133 C 
ATOM      9  N   UNL     1       0.641   2.792 -24.697  0.00  0.00    +0.239 N 
ATOM     10  H   UNL     1       1.341   2.862 -25.435  0.00  0.00    +0.204 HD
ATOM     11  C   UNL     1       1.486   2.886 -25.615  0.00  0.00    +0.191 C 
ATOM     12  C   UNL     1      -0.704   3.232 -24.874  0.00  0.00    +0.096 C 
ATOM     13  C   UNL     1      -0.436   2.748 -23.736  0.00  0.00    -0.010 C 
ATOM     14  C   UNL     1       0.732   2.332 -23.488  0.00  0.00    +0.000 C 
ATOM     15  C   UNL     1       1.003   1.853 -22.363  0.00  0.00    +0.135 C 
ATOM     16 CL   UNL     1       2.160   1.443 -22.123  0.00  0.00    -0.115 Cl
ATOM     17  C   UNL     1       0.110   1.781 -21.469  0.00  0.00    +0.178 C 
ATOM     18  C   UNL     1      -1.046   2.191 -21.711  0.00  0.00    +0.219 C 
ATOM     19  O   UNL     1      -2.450   2.399 -21.199  0.00  0.00    -0.481 OA
ATOM     20  C   UNL     1      -1.860   3.643 -25.119  0.00  0.00    +0.094 C 
ATOM     21  C   UNL     1      -3.373   3.019 -22.205  0.00  0.00    +0.167 A 
ENDROOT
BRANCH   1  23
ATOM     22  C   UNL     1      -6.468   2.693 -21.778  0.00  0.00    +0.277 C 
ATOM     23  O   UNL     1      -5.432   3.367 -21.572  0.00  0.00    -0.491 OA
ENDBRANCH   1  23
BRANCH  17  24
ATOM     24  O   UNL     1       0.384   1.300 -20.345  0.00  0.00    -0.386 OA
ATOM     25  H   UNL     1       0.049   1.890 -19.652  0.00  0.00    +0.210 HD
ENDBRANCH  17  24
TORSDOF 2
ENDMDL
MODEL 4
REMARK VINA RESULT:   -10.596      3.302      5.947
REMARK INTER + INTRA:         -11.365
REMARK INTER:                 -11.244
REMARK INTRA:                  -0.121
REMARK UNBOUND:                 0.160
REMARK  Name = COc1ccc2c3c1O[C@@H]1[C@H](O)[C@H](Cl)C=C4[C@H](C2)N(C)CC[C@]431      ZINC000100393474
REMARK  4 active torsions:
REMARK  status: ('A' for Active; 'I' for Inactive)
REMARK    1  A    between atoms: C_1  and  O_2
REMARK    2  A    between atoms: O_2  and  C_3
REMARK    3  A    between atoms: C_11  and  O_12
REMARK    4  A    between atoms: N_19  and  C_20
REMARK                            x       y       z     vdW  Elec       q    Type
REMARK                         _______ _______ _______ _____ _____    ______ ____
ROOT
ATOM      1  C   UNL     1      -1.753   3.304 -23.275  0.00  0.00    +0.162 A 
ATOM      2  C   UNL     1      -1.768   4.562 -23.409  0.00  0.00    +0.050 A 
ATOM      3  C   UNL     1      -0.701   5.214 -23.411  0.00  0.00    +0.008 A 
ATOM      4  C   UNL     1       0.392   4.615 -23.279  0.00  0.00    -0.034 A 
ATOM      5  C   UNL     1       0.431   3.364 -23.144  0.00  0.00    +0.015 A 
ATOM      6  C   UNL     1       1.525   2.773 -23.012  0.00  0.00    +0.070 C 
ATOM      7  C   UNL     1       2.707   1.989 -22.854  0.00  0.00    +0.071 C 
ATOM      8  C   UNL     1       3.928   2.697 -22.852  0.00  0.00    +0.133 C 
ATOM      9  N   UNL     1       3.872   4.098 -23.004  0.00  0.00    +0.239 N 
ATOM     10  H   UNL     1       4.725   4.656 -23.009  0.00  0.00    +0.204 HD
ATOM     11  C   UNL     1       4.908   4.799 -23.013  0.00  0.00    +0.191 C 
ATOM     12  C   UNL     1       2.578   4.679 -23.147  0.00  0.00    +0.096 C 
ATOM     13  C   UNL     1       2.597   3.421 -23.013  0.00  0.00    -0.010 C 
ATOM     14  C   UNL     1       3.701   2.819 -22.880  0.00  0.00    +0.000 C 
ATOM     15  C   UNL     1       3.725   1.574 -22.746  0.00  0.00    +0.135 C 
ATOM     16 CL   UNL     1       4.820   0.983 -22.614  0.00  0.00    -0.115 Cl
ATOM     17  C   UNL     1       2.647   0.912 -22.744  0.00  0.00    +0.178 C 
ATOM     18  C   UNL     1       1.553   1.504 -22.876  0.00  0.00    +0.219 C 
ATOM     19  O   UNL     1       0.051   1.388 -22.958  0.00  0.00    -0.481 OA
ATOM     20  C   UNL     1       1.485   5.275 -23.280  0.00  0.00    +0.094 C 
ATOM     21  C   UNL     1      -0.646   2.704 -23.142  0.00  0.00    +0.167 A 
ENDROOT
BRANCH   1  23
ATOM     22  C   UNL     1      -3.765   3.003 -22.525  0.00  0.00    +0.277 C 
ATOM     23  O   UNL     1      -2.823   2.656 -23.274  0.00  0.00    -0.491 OA
ENDBRANCH   1  23
BRANCH  17  24
ATOM     24  O   UNL     1       2.674  -0.334 -22.610  0.00  0.00    -0.386 OA
ATOM     25  H   UNL     1       3.412  -0.579 -22.031  0.00  0.00    +0.210 HD
ENDBRANCH  17  24
TORSDOF 2
ENDMDL
MODEL 5
REMARK VINA RESULT:    -8.712      1.998      3.070
REMARK INTER + INTRA:          -9.316
REMARK INTER:                  -9.170
REMARK INTRA:                  -0.145
REMARK UNBOUND:                 0.160
REMARK  Name = COc1ccc2c3c1O[C@@H]1[C@H](O)[C@H](Cl)C=C4[C@H](C2)N(C)CC[C@]431      ZINC000100393474
REMARK  4 active torsions:
REMARK  status: ('A' for Active; 'I' for Inactive)
REMARK    1  A    between atoms: C_1  and  O_2
REMARK    2  A    between atoms: O_2  and  C_3
REMARK    3  A    between atoms: C_11  and  O_12
REMARK    4  A    between atoms: N_19  and  C_20
REMARK                            x       y       z     vdW  Elec       q    Type
REMARK                         _______ _______ _______ _____ _____    ______ ____
ROOT
ATOM      1  C   UNL     1       4.254   1.745 -21.722  0.00  0.00    +0.162 A 
ATOM      2  C   UNL     1       4.887   2.236 -22.701  0.00  0.00    +0.050 A 
ATOM      3  C   UNL     1       4.273   2.719 -23.677  0.00  0.00    +0.008 A 
ATOM      4  C   UNL     1       3.020   2.716 -23.685  0.00  0.00    -0.034 A 
ATOM      5  C   UNL     1       2.369   2.233 -22.722  0.00  0.00    +0.015 A 
ATOM      6  C   UNL     1       1.119   2.233 -22.737  0.00  0.00    +0.070 C 
ATOM      7  C   UNL     1      -0.303   2.176 -22.638  0.00  0.00    +0.071 C 
ATOM      8  C   UNL     1      -1.025   2.713 -23.726  0.00  0.00    +0.133 C 
ATOM      9  N   UNL     1      -0.285   3.252 -24.799  0.00  0.00    +0.239 N 
ATOM     10  H   UNL     1      -0.758   3.653 -25.609  0.00  0.00    +0.204 HD
ATOM     11  C   UNL     1      -0.848   3.747 -25.800  0.00  0.00    +0.191 C 
ATOM     12  C   UNL     1       1.136   3.205 -24.689  0.00  0.00    +0.096 C 
ATOM     13  C   UNL     1       0.499   2.715 -23.712  0.00  0.00    -0.010 C 
ATOM     14  C   UNL     1      -0.765   2.713 -23.722  0.00  0.00    +0.000 C 
ATOM     15  C   UNL     1      -1.400   2.229 -22.757  0.00  0.00    +0.135 C 
ATOM     16 CL   UNL     1      -2.651   2.229 -22.772  0.00  0.00    -0.115 Cl
ATOM     17  C   UNL     1      -0.782   1.740 -21.768  0.00  0.00    +0.178 C 
ATOM     18  C   UNL     1       0.469   1.740 -21.755  0.00  0.00    +0.219 C 
ATOM     19  O   UNL     1       1.728   1.376 -21.008  0.00  0.00    -0.481 OA
ATOM     20  C   UNL     1       2.387   3.208 -24.680  0.00  0.00    +0.094 C 
ATOM     21  C   UNL     1       2.988   1.745 -21.735  0.00  0.00    +0.167 A 
ENDROOT
BRANCH   1  23
ATOM     22  C   UNL     1       4.991   0.022 -20.631  0.00  0.00    +0.277 C 
ATOM     23  O   UNL     1       4.873   1.263 -20.747  0.00  0.00    -0.491 OA
ENDBRANCH   1  23
BRANCH  17  24
ATOM     24  O   UNL     1      -1.420   1.256 -20.804  0.00  0.00    -0.386 OA
ATOM     25  H   UNL     1      -0.993   0.435 -20.514  0.00  0.00    +0.210 HD
ENDBRANCH  17  24
TORSDOF 2
ENDMDL
MODEL 6
REMARK VINA RESULT:    -8.554      3.759      6.537
REMARK INTER + INTRA:          -9.144
REMARK INTER:                  -9.034
REMARK INTRA:                  -0.110
REMARK UNBOUND:                 0.160
REMARK  Name = COc1ccc2c3c1O[C@@H]1[C@H](O)[C@H](Cl)C=C4[C@H](C2)N(C)CC[C@]431      ZINC000100393474
REMARK  4 active torsions:
REMARK  status: ('A' for Active; 'I' for Inactive)
REMARK    1  A    between atoms: C_1  and  O_2
REMARK    2  A    between atoms: O_2  and  C_3
REMARK    3  A    between atoms: C_11  and  O_12
REMARK    4  A    between atoms: N_19  and  C_20
REMARK                            x       y       z     vdW  Elec       q    Type
REMARK                         _______ _______ _______ _____ _____    ______ ____
ROOT
ATOM      1  C   UNL     1      -1.205   3.132 -22.598  0.00  0.00    +0.162 A 
ATOM      2  C   UNL     1      -1.343   1.912 -22.297  0.00  0.00    +0.050 A 
ATOM      3  C   UNL     1      -0.341   1.181 -22.129  0.00  0.00    +0.008 A 
ATOM      4  C   UNL     1       0.808   1.664 -22.260  0.00  0.00    -0.034 A 
ATOM      5  C   UNL     1       0.969   2.876 -22.560  0.00  0.00    +0.015 A 
ATOM      6  C   UNL     1       2.118   3.351 -22.690  0.00  0.00    +0.070 C 
ATOM      7  C   UNL     1       3.374   4.006 -22.865  0.00  0.00    +0.071 C 
ATOM      8  C   UNL     1       4.523   3.208 -22.682  0.00  0.00    +0.133 C 
ATOM      9  N   UNL     1       4.331   1.851 -22.347  0.00  0.00    +0.239 N 
ATOM     10  H   UNL     1       5.128   1.232 -22.203  0.00  0.00    +0.204 HD
ATOM     11  C   UNL     1       5.296   1.076 -22.167  0.00  0.00    +0.191 C 
ATOM     12  C   UNL     1       2.983   1.404 -22.221  0.00  0.00    +0.096 C 
ATOM     13  C   UNL     1       3.124   2.625 -22.523  0.00  0.00    -0.010 C 
ATOM     14  C   UNL     1       4.284   3.110 -22.655  0.00  0.00    +0.000 C 
ATOM     15  C   UNL     1       4.430   4.318 -22.953  0.00  0.00    +0.135 C 
ATOM     16 CL   UNL     1       5.580   4.792 -23.083  0.00  0.00    -0.115 Cl
ATOM     17  C   UNL     1       3.419   5.058 -23.124  0.00  0.00    +0.178 C 
ATOM     18  C   UNL     1       2.270   4.582 -22.994  0.00  0.00    +0.219 C 
ATOM     19  O   UNL     1       0.782   4.830 -23.038  0.00  0.00    -0.481 OA
ATOM     20  C   UNL     1       1.834   0.924 -22.090  0.00  0.00    +0.094 C 
ATOM     21  C   UNL     1      -0.041   3.615 -22.730  0.00  0.00    +0.167 A 
ENDROOT
BRANCH   1  23
ATOM     22  C   UNL     1      -3.335   3.340 -22.942  0.00  0.00    +0.277 C 
ATOM     23  O   UNL     1      -2.210   3.859 -22.765  0.00  0.00    -0.491 OA
ENDBRANCH   1  23
BRANCH  17  24
ATOM     24  O   UNL     1       3.568   6.266 -23.422  0.00  0.00    -0.386 OA
ATOM     25  H   UNL     1       2.701   6.700 -23.454  0.00  0.00    +0.210 HD
ENDBRANCH  17  24
TORSDOF 2
ENDMDL
MODEL 7
REMARK VINA RESULT:    -8.253      3.028      4.508
REMARK INTER + INTRA:          -8.817
REMARK INTER:                  -8.699
REMARK INTRA:                  -0.118
REMARK UNBOUND:                 0.160
REMARK  Name = COc1ccc2c3c1O[C@@H]1[C@H](O)[C@H](Cl)C=C4[C@H](C2)N(C)CC[C@]431      ZINC000100393474
REMARK  4 active torsions:
REMARK  status: ('A' for Active; 'I' for Inactive)
REMARK    1  A    between atoms: C_1  and  O_2
REMARK    2  A    between atoms: O_2  and  C_3
REMARK    3  A    between atoms: C_11  and  O_12
REMARK    4  A    between atoms: N_19  and  C_20
REMARK                            x       y       z     vdW  Elec       q    Type
REMARK                         _______ _______ _______ _____ _____    ______ ____
ROOT
ATOM      1  C   UNL     1       5.564   3.531 -22.629  0.00  0.00    +0.162 A 
ATOM      2  C   UNL     1       5.660   4.767 -22.878  0.00  0.00    +0.050 A 
ATOM      3  C   UNL     1       4.636   5.457 -23.081  0.00  0.00    +0.008 A 
ATOM      4  C   UNL     1       3.506   4.918 -23.037  0.00  0.00    -0.034 A 
ATOM      5  C   UNL     1       3.386   3.689 -22.790  0.00  0.00    +0.015 A 
ATOM      6  C   UNL     1       2.255   3.157 -22.747  0.00  0.00    +0.070 C 
ATOM      7  C   UNL     1       1.024   2.440 -22.672  0.00  0.00    +0.071 C 
ATOM      8  C   UNL     1      -0.149   3.191 -22.897  0.00  0.00    +0.133 C 
ATOM      9  N   UNL     1      -0.002   4.567 -23.172  0.00  0.00    +0.239 N 
ATOM     10  H   UNL     1      -0.818   5.154 -23.341  0.00  0.00    +0.204 HD
ATOM     11  C   UNL     1      -0.991   5.303 -23.382  0.00  0.00    +0.191 C 
ATOM     12  C   UNL     1       1.328   5.079 -23.199  0.00  0.00    +0.096 C 
ATOM     13  C   UNL     1       1.228   3.843 -22.950  0.00  0.00    -0.010 C 
ATOM     14  C   UNL     1       0.086   3.301 -22.905  0.00  0.00    +0.000 C 
ATOM     15  C   UNL     1      -0.019   2.077 -22.659  0.00  0.00    +0.135 C 
ATOM     16 CL   UNL     1      -1.151   1.546 -22.617  0.00  0.00    -0.115 Cl
ATOM     17  C   UNL     1       1.015   1.378 -22.454  0.00  0.00    +0.178 C 
ATOM     18  C   UNL     1       2.145   1.911 -22.497  0.00  0.00    +0.219 C 
ATOM     19  O   UNL     1       3.637   1.729 -22.371  0.00  0.00    -0.481 OA
ATOM     20  C   UNL     1       2.458   5.616 -23.243  0.00  0.00    +0.094 C 
ATOM     21  C   UNL     1       4.419   2.991 -22.585  0.00  0.00    +0.167 A 
ENDROOT
BRANCH   1  23
ATOM     22  C   UNL     1       7.586   2.973 -23.175  0.00  0.00    +0.277 C 
ATOM     23  O   UNL     1       6.590   2.846 -22.427  0.00  0.00    -0.491 OA
ENDBRANCH   1  23
BRANCH  17  24
ATOM     24  O   UNL     1       0.906   0.154 -22.208  0.00  0.00    -0.386 OA
ATOM     25  H   UNL     1       1.217  -0.357 -22.971  0.00  0.00    +0.210 HD
ENDBRANCH  17  24
TORSDOF 2
ENDMDL
