MODEL 1
REMARK VINA RESULT:    -8.324      0.000      0.000
REMARK INTER + INTRA:         -11.478
REMARK INTER:                 -12.856
REMARK INTRA:                   1.378
REMARK UNBOUND:                 1.226
REMARK  Name = ZINC000000689870
REMARK  15 active torsions:
REMARK  status: ('A' for Active; 'I' for Inactive)
REMARK    1  A    between atoms: C_1  and  C_2
REMARK    2  A    between atoms: C_2  and  N_3
REMARK    3  A    between atoms: N_3  and  C_4
REMARK    4  A    between atoms: N_3  and  C_6
REMARK    5  A    between atoms: C_4  and  C_5
REMARK    6  A    between atoms: C_6  and  C_7
REMARK    7  A    between atoms: C_7  and  N_8
REMARK    8  A    between atoms: C_11  and  C_12
REMARK    9  A    between atoms: C_12  and  C_13
REMARK   10  A    between atoms: C_15  and  O_16
REMARK   11  A    between atoms: O_16  and  C_17
REMARK   12  A    between atoms: C_18  and  O_19
REMARK   13  A    between atoms: O_19  and  C_20
REMARK   14  A    between atoms: C_21  and  O_22
REMARK   15  A    between atoms: O_22  and  C_23
REMARK                            x       y       z     vdW  Elec       q    Type
REMARK                         _______ _______ _______ _____ _____    ______ ____
ROOT
ATOM      1  N   UNL     1       3.246   4.124 -23.126  0.00  0.00    -0.300 N 
ATOM      2  C   UNL     1       2.159   4.797 -23.362  0.00  0.00    +0.274 A 
ATOM      3  C   UNL     1       1.001   4.211 -23.276  0.00  0.00    +0.111 A 
ATOM      4  N   UNL     1       0.931   2.954 -22.955  0.00  0.00    -0.244 NA
ATOM      5  C   UNL     1       2.018   2.281 -22.719  0.00  0.00    +0.088 A 
ATOM      6  C   UNL     1       1.948   1.024 -22.398  0.00  0.00    +0.030 A 
ATOM      7  C   UNL     1       3.036   0.351 -22.163  0.00  0.00    +0.002 A 
ATOM      8  C   UNL     1       4.193   0.937 -22.248  0.00  0.00    +0.002 A 
ATOM      9  C   UNL     1       4.263   2.194 -22.569  0.00  0.00    +0.028 A 
ATOM     10  O   UNL     1       2.229   6.055 -23.683  0.00  0.00    -0.266 OA
ATOM     11  C   UNL     1       3.176   2.867 -22.805  0.00  0.00    +0.071 A 
ENDROOT
BRANCH   1  12
ATOM     12  C   UNL     1       4.404   4.709 -23.212  0.00  0.00    +0.176 C 
BRANCH  12  13
ATOM     13  C   UNL     1       4.795   5.517 -22.271  0.00  0.00    +0.153 C 
BRANCH  13  14
ATOM     14  N   UNL     1       6.063   5.753 -22.102  0.00  0.00    +0.236 N 
ATOM     15  H   UNL     1       6.901   6.316 -21.963  0.00  0.00    +0.203 HD
BRANCH  14  16
ATOM     16  C   UNL     1       6.908   4.766 -22.065  0.00  0.00    +0.128 C 
ATOM     17  C   UNL     1       7.015   4.041 -20.992  0.00  0.00    +0.060 C 
ENDBRANCH  14  16
BRANCH  14  19
ATOM     18  C   UNL     1       6.111   7.685 -20.947  0.00  0.00    +0.060 C 
ATOM     19  C   UNL     1       6.485   6.975 -21.970  0.00  0.00    +0.128 C 
ENDBRANCH  14  19
ENDBRANCH  13  14
ENDBRANCH  12  13
ENDBRANCH   1  12
BRANCH   3  20
ATOM     20  C   UNL     1      -0.086   4.884 -23.512  0.00  0.00    +0.096 C 
BRANCH  20  21
ATOM     21  C   UNL     1      -1.247   4.339 -23.296  0.00  0.00    -0.034 A 
ATOM     22  C   UNL     1      -2.093   4.204 -24.272  0.00  0.00    +0.053 A 
ATOM     23  C   UNL     1      -3.254   3.659 -24.056  0.00  0.00    +0.165 A 
ATOM     24  C   UNL     1      -3.567   3.249 -22.863  0.00  0.00    +0.204 A 
ATOM     25  C   UNL     1      -2.721   3.384 -21.886  0.00  0.00    +0.165 A 
ATOM     26  C   UNL     1      -1.560   3.930 -22.102  0.00  0.00    +0.053 A 
BRANCH  25  27
ATOM     27  O   UNL     1      -3.034   2.975 -20.693  0.00  0.00    -0.491 OA
ATOM     28  C   UNL     1      -3.152   3.832 -19.722  0.00  0.00    +0.277 C 
ENDBRANCH  25  27
BRANCH  23  29
ATOM     29  O   UNL     1      -4.101   3.524 -25.033  0.00  0.00    -0.491 OA
ATOM     30  C   UNL     1      -3.671   3.339 -26.246  0.00  0.00    +0.277 C 
ENDBRANCH  23  29
BRANCH  24  31
ATOM     31  O   UNL     1      -4.728   2.705 -22.647  0.00  0.00    -0.488 OA
ATOM     32  C   UNL     1      -5.748   3.448 -22.337  0.00  0.00    +0.277 C 
ENDBRANCH  24  31
ENDBRANCH  20  21
ENDBRANCH   3  20
TORSDOF 10
ENDMDL
MODEL 2
REMARK VINA RESULT:    -8.323      0.910      2.383
REMARK INTER + INTRA:         -11.476
REMARK INTER:                 -12.630
REMARK INTRA:                   1.154
REMARK UNBOUND:                 1.226
REMARK  Name = ZINC000000689870
REMARK  15 active torsions:
REMARK  status: ('A' for Active; 'I' for Inactive)
REMARK    1  A    between atoms: C_1  and  C_2
REMARK    2  A    between atoms: C_2  and  N_3
REMARK    3  A    between atoms: N_3  and  C_4
REMARK    4  A    between atoms: N_3  and  C_6
REMARK    5  A    between atoms: C_4  and  C_5
REMARK    6  A    between atoms: C_6  and  C_7
REMARK    7  A    between atoms: C_7  and  N_8
REMARK    8  A    between atoms: C_11  and  C_12
REMARK    9  A    between atoms: C_12  and  C_13
REMARK   10  A    between atoms: C_15  and  O_16
REMARK   11  A    between atoms: O_16  and  C_17
REMARK   12  A    between atoms: C_18  and  O_19
REMARK   13  A    between atoms: O_19  and  C_20
REMARK   14  A    between atoms: C_21  and  O_22
REMARK   15  A    between atoms: O_22  and  C_23
REMARK                            x       y       z     vdW  Elec       q    Type
REMARK                         _______ _______ _______ _____ _____    ______ ____
ROOT
ATOM      1  N   UNL     1       3.632   4.000 -23.089  0.00  0.00    -0.300 N 
ATOM      2  C   UNL     1       2.591   4.758 -23.265  0.00  0.00    +0.274 A 
ATOM      3  C   UNL     1       1.398   4.276 -23.077  0.00  0.00    +0.111 A 
ATOM      4  N   UNL     1       1.246   3.038 -22.714  0.00  0.00    -0.244 NA
ATOM      5  C   UNL     1       2.288   2.280 -22.537  0.00  0.00    +0.088 A 
ATOM      6  C   UNL     1       2.136   1.041 -22.174  0.00  0.00    +0.030 A 
ATOM      7  C   UNL     1       3.178   0.284 -21.997  0.00  0.00    +0.002 A 
ATOM      8  C   UNL     1       4.371   0.765 -22.185  0.00  0.00    +0.002 A 
ATOM      9  C   UNL     1       4.522   2.003 -22.549  0.00  0.00    +0.028 A 
ATOM     10  O   UNL     1       2.742   5.997 -23.629  0.00  0.00    -0.266 OA
ATOM     11  C   UNL     1       3.481   2.761 -22.725  0.00  0.00    +0.071 A 
ENDROOT
BRANCH   1  12
ATOM     12  C   UNL     1       4.825   4.481 -23.277  0.00  0.00    +0.176 C 
BRANCH  12  13
ATOM     13  C   UNL     1       5.452   5.065 -22.299  0.00  0.00    +0.153 C 
BRANCH  13  14
ATOM     14  N   UNL     1       6.688   4.754 -22.042  0.00  0.00    +0.236 N 
ATOM     15  H   UNL     1       7.490   4.496 -21.467  0.00  0.00    +0.203 HD
BRANCH  14  16
ATOM     16  C   UNL     1       7.559   4.696 -23.006  0.00  0.00    +0.128 C 
ATOM     17  C   UNL     1       7.944   5.786 -23.600  0.00  0.00    +0.060 C 
ENDBRANCH  14  16
BRANCH  14  19
ATOM     18  C   UNL     1       7.311   5.479 -20.002  0.00  0.00    +0.060 C 
ATOM     19  C   UNL     1       7.055   4.502 -20.820  0.00  0.00    +0.128 C 
ENDBRANCH  14  19
ENDBRANCH  13  14
ENDBRANCH  12  13
ENDBRANCH   1  12
BRANCH   3  20
ATOM     20  C   UNL     1       0.356   5.035 -23.254  0.00  0.00    +0.096 C 
BRANCH  20  21
ATOM     21  C   UNL     1      -0.836   4.516 -23.230  0.00  0.00    -0.034 A 
ATOM     22  C   UNL     1      -1.549   4.576 -22.145  0.00  0.00    +0.053 A 
ATOM     23  C   UNL     1      -2.741   4.057 -22.122  0.00  0.00    +0.165 A 
ATOM     24  C   UNL     1      -3.220   3.479 -23.184  0.00  0.00    +0.204 A 
ATOM     25  C   UNL     1      -2.507   3.420 -24.269  0.00  0.00    +0.165 A 
ATOM     26  C   UNL     1      -1.314   3.938 -24.292  0.00  0.00    +0.053 A 
BRANCH  25  27
ATOM     27  O   UNL     1      -2.984   2.842 -25.331  0.00  0.00    -0.491 OA
ATOM     28  C   UNL     1      -3.295   3.554 -26.373  0.00  0.00    +0.277 C 
ENDBRANCH  25  27
BRANCH  23  29
ATOM     29  O   UNL     1      -3.455   4.116 -21.037  0.00  0.00    -0.491 OA
ATOM     30  C   UNL     1      -2.980   3.653 -19.920  0.00  0.00    +0.277 C 
ENDBRANCH  23  29
BRANCH  24  31
ATOM     31  O   UNL     1      -4.412   2.961 -23.161  0.00  0.00    -0.488 OA
ATOM     32  C   UNL     1      -5.454   3.719 -23.328  0.00  0.00    +0.277 C 
ENDBRANCH  24  31
ENDBRANCH  20  21
ENDBRANCH   3  20
TORSDOF 10
ENDMDL
MODEL 3
REMARK VINA RESULT:    -7.930      1.862      3.955
REMARK INTER + INTRA:         -10.876
REMARK INTER:                 -12.415
REMARK INTRA:                   1.539
REMARK UNBOUND:                 1.226
REMARK  Name = ZINC000000689870
REMARK  15 active torsions:
REMARK  status: ('A' for Active; 'I' for Inactive)
REMARK    1  A    between atoms: C_1  and  C_2
REMARK    2  A    between atoms: C_2  and  N_3
REMARK    3  A    between atoms: N_3  and  C_4
REMARK    4  A    between atoms: N_3  and  C_6
REMARK    5  A    between atoms: C_4  and  C_5
REMARK    6  A    between atoms: C_6  and  C_7
REMARK    7  A    between atoms: C_7  and  N_8
REMARK    8  A    between atoms: C_11  and  C_12
REMARK    9  A    between atoms: C_12  and  C_13
REMARK   10  A    between atoms: C_15  and  O_16
REMARK   11  A    between atoms: O_16  and  C_17
REMARK   12  A    between atoms: C_18  and  O_19
REMARK   13  A    between atoms: O_19  and  C_20
REMARK   14  A    between atoms: C_21  and  O_22
REMARK   15  A    between atoms: O_22  and  C_23
REMARK                            x       y       z     vdW  Elec       q    Type
REMARK                         _______ _______ _______ _____ _____    ______ ____
ROOT
ATOM      1  N   UNL     1       3.231   3.086 -24.060  0.00  0.00    -0.300 N 
ATOM      2  C   UNL     1       2.069   2.952 -24.625  0.00  0.00    +0.274 A 
ATOM      3  C   UNL     1       1.222   3.940 -24.612  0.00  0.00    +0.111 A 
ATOM      4  N   UNL     1       1.539   5.059 -24.033  0.00  0.00    -0.244 NA
ATOM      5  C   UNL     1       2.702   5.193 -23.467  0.00  0.00    +0.088 A 
ATOM      6  C   UNL     1       3.019   6.312 -22.888  0.00  0.00    +0.030 A 
ATOM      7  C   UNL     1       4.182   6.445 -22.323  0.00  0.00    +0.002 A 
ATOM      8  C   UNL     1       5.028   5.458 -22.336  0.00  0.00    +0.002 A 
ATOM      9  C   UNL     1       4.711   4.339 -22.915  0.00  0.00    +0.028 A 
ATOM     10  O   UNL     1       1.752   1.832 -25.204  0.00  0.00    -0.266 OA
ATOM     11  C   UNL     1       3.548   4.205 -23.481  0.00  0.00    +0.071 A 
ENDROOT
BRANCH   1  12
ATOM     12  C   UNL     1       4.077   2.099 -24.073  0.00  0.00    +0.176 C 
BRANCH  12  13
ATOM     13  C   UNL     1       3.779   0.979 -23.484  0.00  0.00    +0.153 C 
BRANCH  13  14
ATOM     14  N   UNL     1       3.827   0.892 -22.188  0.00  0.00    +0.236 N 
ATOM     15  H   UNL     1       3.461   0.807 -21.240  0.00  0.00    +0.203 HD
BRANCH  14  16
ATOM     16  C   UNL     1       4.974   0.913 -21.577  0.00  0.00    +0.128 C 
ATOM     17  C   UNL     1       5.334  -0.092 -20.835  0.00  0.00    +0.060 C 
ENDBRANCH  14  16
BRANCH  14  19
ATOM     18  C   UNL     1       2.254   1.815 -20.867  0.00  0.00    +0.060 C 
ATOM     19  C   UNL     1       2.727   0.785 -21.503  0.00  0.00    +0.128 C 
ENDBRANCH  14  19
ENDBRANCH  13  14
ENDBRANCH  12  13
ENDBRANCH   1  12
BRANCH   3  20
ATOM     20  C   UNL     1       0.060   3.806 -25.178  0.00  0.00    +0.096 C 
BRANCH  20  21
ATOM     21  C   UNL     1      -0.995   3.583 -24.450  0.00  0.00    -0.034 A 
ATOM     22  C   UNL     1      -0.880   2.969 -23.310  0.00  0.00    +0.053 A 
ATOM     23  C   UNL     1      -1.934   2.746 -22.583  0.00  0.00    +0.165 A 
ATOM     24  C   UNL     1      -3.104   3.137 -22.996  0.00  0.00    +0.204 A 
ATOM     25  C   UNL     1      -3.219   3.751 -24.135  0.00  0.00    +0.165 A 
ATOM     26  C   UNL     1      -2.164   3.974 -24.863  0.00  0.00    +0.053 A 
BRANCH  25  27
ATOM     27  O   UNL     1      -4.387   4.142 -24.549  0.00  0.00    -0.491 OA
ATOM     28  C   UNL     1      -4.948   3.554 -25.564  0.00  0.00    +0.277 C 
ENDBRANCH  25  27
BRANCH  23  29
ATOM     29  O   UNL     1      -1.820   2.132 -21.443  0.00  0.00    -0.491 OA
ATOM     30  C   UNL     1      -1.031   1.104 -21.334  0.00  0.00    +0.277 C 
ENDBRANCH  23  29
BRANCH  24  31
ATOM     31  O   UNL     1      -4.158   2.914 -22.269  0.00  0.00    -0.488 OA
ATOM     32  C   UNL     1      -4.359   3.605 -21.186  0.00  0.00    +0.277 C 
ENDBRANCH  24  31
ENDBRANCH  20  21
ENDBRANCH   3  20
TORSDOF 10
ENDMDL
MODEL 4
REMARK VINA RESULT:    -7.926      1.855      3.478
REMARK INTER + INTRA:         -10.870
REMARK INTER:                 -12.334
REMARK INTRA:                   1.464
REMARK UNBOUND:                 1.226
REMARK  Name = ZINC000000689870
REMARK  15 active torsions:
REMARK  status: ('A' for Active; 'I' for Inactive)
REMARK    1  A    between atoms: C_1  and  C_2
REMARK    2  A    between atoms: C_2  and  N_3
REMARK    3  A    between atoms: N_3  and  C_4
REMARK    4  A    between atoms: N_3  and  C_6
REMARK    5  A    between atoms: C_4  and  C_5
REMARK    6  A    between atoms: C_6  and  C_7
REMARK    7  A    between atoms: C_7  and  N_8
REMARK    8  A    between atoms: C_11  and  C_12
REMARK    9  A    between atoms: C_12  and  C_13
REMARK   10  A    between atoms: C_15  and  O_16
REMARK   11  A    between atoms: O_16  and  C_17
REMARK   12  A    between atoms: C_18  and  O_19
REMARK   13  A    between atoms: O_19  and  C_20
REMARK   14  A    between atoms: C_21  and  O_22
REMARK   15  A    between atoms: O_22  and  C_23
REMARK                            x       y       z     vdW  Elec       q    Type
REMARK                         _______ _______ _______ _____ _____    ______ ____
ROOT
ATOM      1  N   UNL     1       3.294   3.080 -24.018  0.00  0.00    -0.300 N 
ATOM      2  C   UNL     1       2.137   2.918 -24.588  0.00  0.00    +0.274 A 
ATOM      3  C   UNL     1       1.271   3.889 -24.587  0.00  0.00    +0.111 A 
ATOM      4  N   UNL     1       1.563   5.020 -24.017  0.00  0.00    -0.244 NA
ATOM      5  C   UNL     1       2.720   5.182 -23.447  0.00  0.00    +0.088 A 
ATOM      6  C   UNL     1       3.011   6.312 -22.876  0.00  0.00    +0.030 A 
ATOM      7  C   UNL     1       4.169   6.473 -22.306  0.00  0.00    +0.002 A 
ATOM      8  C   UNL     1       5.034   5.503 -22.307  0.00  0.00    +0.002 A 
ATOM      9  C   UNL     1       4.743   4.373 -22.878  0.00  0.00    +0.028 A 
ATOM     10  O   UNL     1       1.845   1.788 -25.159  0.00  0.00    -0.266 OA
ATOM     11  C   UNL     1       3.586   4.211 -23.448  0.00  0.00    +0.071 A 
ENDROOT
BRANCH   1  12
ATOM     12  C   UNL     1       4.159   2.111 -24.019  0.00  0.00    +0.176 C 
BRANCH  12  13
ATOM     13  C   UNL     1       3.881   0.990 -23.421  0.00  0.00    +0.153 C 
BRANCH  13  14
ATOM     14  N   UNL     1       3.830   0.941 -22.123  0.00  0.00    +0.236 N 
ATOM     15  H   UNL     1       3.393   0.877 -21.204  0.00  0.00    +0.203 HD
BRANCH  14  16
ATOM     16  C   UNL     1       4.926   0.995 -21.426  0.00  0.00    +0.128 C 
ATOM     17  C   UNL     1       5.336  -0.053 -20.776  0.00  0.00    +0.060 C 
ENDBRANCH  14  16
BRANCH  14  19
ATOM     18  C   UNL     1       2.237   1.819 -20.795  0.00  0.00    +0.060 C 
ATOM     19  C   UNL     1       2.682   0.837 -21.521  0.00  0.00    +0.128 C 
ENDBRANCH  14  19
ENDBRANCH  13  14
ENDBRANCH  12  13
ENDBRANCH   1  12
BRANCH   3  20
ATOM     20  C   UNL     1       0.114   3.727 -25.157  0.00  0.00    +0.096 C 
BRANCH  20  21
ATOM     21  C   UNL     1      -0.947   3.534 -24.430  0.00  0.00    -0.034 A 
ATOM     22  C   UNL     1      -2.107   3.942 -24.851  0.00  0.00    +0.053 A 
ATOM     23  C   UNL     1      -3.167   3.748 -24.124  0.00  0.00    +0.165 A 
ATOM     24  C   UNL     1      -3.067   3.147 -22.976  0.00  0.00    +0.204 A 
ATOM     25  C   UNL     1      -1.907   2.739 -22.555  0.00  0.00    +0.165 A 
ATOM     26  C   UNL     1      -0.846   2.932 -23.282  0.00  0.00    +0.053 A 
BRANCH  25  27
ATOM     27  O   UNL     1      -1.807   2.137 -21.407  0.00  0.00    -0.491 OA
ATOM     28  C   UNL     1      -1.020   1.110 -21.279  0.00  0.00    +0.277 C 
ENDBRANCH  25  27
BRANCH  23  29
ATOM     29  O   UNL     1      -4.328   4.157 -24.545  0.00  0.00    -0.491 OA
ATOM     30  C   UNL     1      -4.868   3.611 -25.594  0.00  0.00    +0.277 C 
ENDBRANCH  23  29
BRANCH  24  31
ATOM     31  O   UNL     1      -4.127   2.954 -22.249  0.00  0.00    -0.488 OA
ATOM     32  C   UNL     1      -4.309   3.650 -21.166  0.00  0.00    +0.277 C 
ENDBRANCH  24  31
ENDBRANCH  20  21
ENDBRANCH   3  20
TORSDOF 10
ENDMDL
MODEL 5
REMARK VINA RESULT:    -7.873      2.614      7.976
REMARK INTER + INTRA:         -10.789
REMARK INTER:                 -12.447
REMARK INTRA:                   1.658
REMARK UNBOUND:                 1.226
REMARK  Name = ZINC000000689870
REMARK  15 active torsions:
REMARK  status: ('A' for Active; 'I' for Inactive)
REMARK    1  A    between atoms: C_1  and  C_2
REMARK    2  A    between atoms: C_2  and  N_3
REMARK    3  A    between atoms: N_3  and  C_4
REMARK    4  A    between atoms: N_3  and  C_6
REMARK    5  A    between atoms: C_4  and  C_5
REMARK    6  A    between atoms: C_6  and  C_7
REMARK    7  A    between atoms: C_7  and  N_8
REMARK    8  A    between atoms: C_11  and  C_12
REMARK    9  A    between atoms: C_12  and  C_13
REMARK   10  A    between atoms: C_15  and  O_16
REMARK   11  A    between atoms: O_16  and  C_17
REMARK   12  A    between atoms: C_18  and  O_19
REMARK   13  A    between atoms: O_19  and  C_20
REMARK   14  A    between atoms: C_21  and  O_22
REMARK   15  A    between atoms: O_22  and  C_23
REMARK                            x       y       z     vdW  Elec       q    Type
REMARK                         _______ _______ _______ _____ _____    ______ ____
ROOT
ATOM      1  N   UNL     1      -1.907   3.083 -23.863  0.00  0.00    -0.300 N 
ATOM      2  C   UNL     1      -0.874   3.748 -24.287  0.00  0.00    +0.274 A 
ATOM      3  C   UNL     1      -0.289   4.608 -23.506  0.00  0.00    +0.111 A 
ATOM      4  N   UNL     1      -0.738   4.803 -22.302  0.00  0.00    -0.244 NA
ATOM      5  C   UNL     1      -1.772   4.138 -21.878  0.00  0.00    +0.088 A 
ATOM      6  C   UNL     1      -2.221   4.333 -20.674  0.00  0.00    +0.030 A 
ATOM      7  C   UNL     1      -3.254   3.668 -20.250  0.00  0.00    +0.002 A 
ATOM      8  C   UNL     1      -3.839   2.808 -21.031  0.00  0.00    +0.002 A 
ATOM      9  C   UNL     1      -3.390   2.613 -22.234  0.00  0.00    +0.028 A 
ATOM     10  O   UNL     1      -0.424   3.553 -25.491  0.00  0.00    -0.266 OA
ATOM     11  C   UNL     1      -2.356   3.278 -22.659  0.00  0.00    +0.071 A 
ENDROOT
BRANCH   1  12
ATOM     12  C   UNL     1      -2.491   2.223 -24.643  0.00  0.00    +0.176 C 
BRANCH  12  13
ATOM     13  C   UNL     1      -3.561   2.563 -25.299  0.00  0.00    +0.153 C 
BRANCH  13  14
ATOM     14  N   UNL     1      -3.592   3.683 -25.958  0.00  0.00    +0.236 N 
ATOM     15  H   UNL     1      -3.406   4.322 -26.731  0.00  0.00    +0.203 HD
BRANCH  14  16
ATOM     16  C   UNL     1      -4.192   4.719 -25.451  0.00  0.00    +0.128 C 
ATOM     17  C   UNL     1      -5.177   4.557 -24.618  0.00  0.00    +0.060 C 
ENDBRANCH  14  16
BRANCH  14  19
ATOM     18  C   UNL     1      -3.671   3.407 -28.191  0.00  0.00    +0.060 C 
ATOM     19  C   UNL     1      -3.023   3.768 -27.124  0.00  0.00    +0.128 C 
ENDBRANCH  14  19
ENDBRANCH  13  14
ENDBRANCH  12  13
ENDBRANCH   1  12
BRANCH   3  20
ATOM     20  C   UNL     1       0.744   5.273 -23.930  0.00  0.00    +0.096 C 
BRANCH  20  21
ATOM     21  C   UNL     1       1.944   4.878 -23.618  0.00  0.00    -0.034 A 
ATOM     22  C   UNL     1       2.776   5.705 -23.060  0.00  0.00    +0.053 A 
ATOM     23  C   UNL     1       3.975   5.310 -22.748  0.00  0.00    +0.165 A 
ATOM     24  C   UNL     1       4.341   4.087 -22.995  0.00  0.00    +0.204 A 
ATOM     25  C   UNL     1       3.508   3.259 -23.553  0.00  0.00    +0.165 A 
ATOM     26  C   UNL     1       2.309   3.655 -23.865  0.00  0.00    +0.053 A 
BRANCH  25  27
ATOM     27  O   UNL     1       3.873   2.036 -23.800  0.00  0.00    -0.491 OA
ATOM     28  C   UNL     1       3.089   1.248 -24.473  0.00  0.00    +0.277 C 
ENDBRANCH  25  27
BRANCH  23  29
ATOM     29  O   UNL     1       4.808   6.137 -22.190  0.00  0.00    -0.491 OA
ATOM     30  C   UNL     1       4.461   7.374 -21.991  0.00  0.00    +0.277 C 
ENDBRANCH  23  29
BRANCH  24  31
ATOM     31  O   UNL     1       5.539   3.691 -22.683  0.00  0.00    -0.488 OA
ATOM     32  C   UNL     1       6.509   3.817 -23.540  0.00  0.00    +0.277 C 
ENDBRANCH  24  31
ENDBRANCH  20  21
ENDBRANCH   3  20
TORSDOF 10
ENDMDL
MODEL 6
REMARK VINA RESULT:    -7.857      2.537      7.836
REMARK INTER + INTRA:         -10.764
REMARK INTER:                 -12.543
REMARK INTRA:                   1.779
REMARK UNBOUND:                 1.226
REMARK  Name = ZINC000000689870
REMARK  15 active torsions:
REMARK  status: ('A' for Active; 'I' for Inactive)
REMARK    1  A    between atoms: C_1  and  C_2
REMARK    2  A    between atoms: C_2  and  N_3
REMARK    3  A    between atoms: N_3  and  C_4
REMARK    4  A    between atoms: N_3  and  C_6
REMARK    5  A    between atoms: C_4  and  C_5
REMARK    6  A    between atoms: C_6  and  C_7
REMARK    7  A    between atoms: C_7  and  N_8
REMARK    8  A    between atoms: C_11  and  C_12
REMARK    9  A    between atoms: C_12  and  C_13
REMARK   10  A    between atoms: C_15  and  O_16
REMARK   11  A    between atoms: O_16  and  C_17
REMARK   12  A    between atoms: C_18  and  O_19
REMARK   13  A    between atoms: O_19  and  C_20
REMARK   14  A    between atoms: C_21  and  O_22
REMARK   15  A    between atoms: O_22  and  C_23
REMARK                            x       y       z     vdW  Elec       q    Type
REMARK                         _______ _______ _______ _____ _____    ______ ____
ROOT
ATOM      1  N   UNL     1      -1.911   3.081 -23.850  0.00  0.00    -0.300 N 
ATOM      2  C   UNL     1      -0.874   3.750 -24.257  0.00  0.00    +0.274 A 
ATOM      3  C   UNL     1      -0.300   4.606 -23.463  0.00  0.00    +0.111 A 
ATOM      4  N   UNL     1      -0.764   4.790 -22.263  0.00  0.00    -0.244 NA
ATOM      5  C   UNL     1      -1.801   4.121 -21.855  0.00  0.00    +0.088 A 
ATOM      6  C   UNL     1      -2.264   4.305 -20.655  0.00  0.00    +0.030 A 
ATOM      7  C   UNL     1      -3.301   3.635 -20.249  0.00  0.00    +0.002 A 
ATOM      8  C   UNL     1      -3.875   2.780 -21.042  0.00  0.00    +0.002 A 
ATOM      9  C   UNL     1      -3.412   2.596 -22.242  0.00  0.00    +0.028 A 
ATOM     10  O   UNL     1      -0.411   3.566 -25.457  0.00  0.00    -0.266 OA
ATOM     11  C   UNL     1      -2.375   3.265 -22.650  0.00  0.00    +0.071 A 
ENDROOT
BRANCH   1  12
ATOM     12  C   UNL     1      -2.485   2.226 -24.643  0.00  0.00    +0.176 C 
BRANCH  12  13
ATOM     13  C   UNL     1      -3.568   2.557 -25.282  0.00  0.00    +0.153 C 
BRANCH  13  14
ATOM     14  N   UNL     1      -3.621   3.681 -25.933  0.00  0.00    +0.236 N 
ATOM     15  H   UNL     1      -3.447   4.329 -26.701  0.00  0.00    +0.203 HD
BRANCH  14  16
ATOM     16  C   UNL     1      -4.243   4.701 -25.420  0.00  0.00    +0.128 C 
ATOM     17  C   UNL     1      -5.223   4.512 -24.586  0.00  0.00    +0.060 C 
ENDBRANCH  14  16
BRANCH  14  19
ATOM     18  C   UNL     1      -3.683   3.404 -28.167  0.00  0.00    +0.060 C 
ATOM     19  C   UNL     1      -3.051   3.787 -27.097  0.00  0.00    +0.128 C 
ENDBRANCH  14  19
ENDBRANCH  13  14
ENDBRANCH  12  13
ENDBRANCH   1  12
BRANCH   3  20
ATOM     20  C   UNL     1       0.737   5.275 -23.870  0.00  0.00    +0.096 C 
BRANCH  20  21
ATOM     21  C   UNL     1       1.934   4.834 -23.619  0.00  0.00    -0.034 A 
ATOM     22  C   UNL     1       2.260   3.618 -23.941  0.00  0.00    +0.053 A 
ATOM     23  C   UNL     1       3.457   3.178 -23.689  0.00  0.00    +0.165 A 
ATOM     24  C   UNL     1       4.328   3.954 -23.115  0.00  0.00    +0.204 A 
ATOM     25  C   UNL     1       4.002   5.170 -22.793  0.00  0.00    +0.165 A 
ATOM     26  C   UNL     1       2.805   5.611 -23.045  0.00  0.00    +0.053 A 
BRANCH  25  27
ATOM     27  O   UNL     1       4.872   5.947 -22.219  0.00  0.00    -0.491 OA
ATOM     28  C   UNL     1       4.599   7.204 -22.035  0.00  0.00    +0.277 C 
ENDBRANCH  25  27
BRANCH  23  29
ATOM     29  O   UNL     1       3.784   1.962 -24.011  0.00  0.00    -0.491 OA
ATOM     30  C   UNL     1       3.126   0.958 -23.511  0.00  0.00    +0.277 C 
ENDBRANCH  23  29
BRANCH  24  31
ATOM     31  O   UNL     1       5.525   3.514 -22.863  0.00  0.00    -0.488 OA
ATOM     32  C   UNL     1       5.778   2.928 -21.731  0.00  0.00    +0.277 C 
ENDBRANCH  24  31
ENDBRANCH  20  21
ENDBRANCH   3  20
TORSDOF 10
ENDMDL
MODEL 7
REMARK VINA RESULT:    -6.576      2.289      4.347
REMARK INTER + INTRA:          -8.810
REMARK INTER:                 -10.036
REMARK INTRA:                   1.226
REMARK UNBOUND:                 1.226
REMARK  Name = ZINC000000689870
REMARK  15 active torsions:
REMARK  status: ('A' for Active; 'I' for Inactive)
REMARK    1  A    between atoms: C_1  and  C_2
REMARK    2  A    between atoms: C_2  and  N_3
REMARK    3  A    between atoms: N_3  and  C_4
REMARK    4  A    between atoms: N_3  and  C_6
REMARK    5  A    between atoms: C_4  and  C_5
REMARK    6  A    between atoms: C_6  and  C_7
REMARK    7  A    between atoms: C_7  and  N_8
REMARK    8  A    between atoms: C_11  and  C_12
REMARK    9  A    between atoms: C_12  and  C_13
REMARK   10  A    between atoms: C_15  and  O_16
REMARK   11  A    between atoms: O_16  and  C_17
REMARK   12  A    between atoms: C_18  and  O_19
REMARK   13  A    between atoms: O_19  and  C_20
REMARK   14  A    between atoms: C_21  and  O_22
REMARK   15  A    between atoms: O_22  and  C_23
REMARK                            x       y       z     vdW  Elec       q    Type
REMARK                         _______ _______ _______ _____ _____    ______ ____
ROOT
ATOM      1  N   UNL     1       5.107   4.196 -23.148  0.00  0.00    -0.300 N 
ATOM      2  C   UNL     1       4.194   3.462 -23.711  0.00  0.00    +0.274 A 
ATOM      3  C   UNL     1       2.985   3.921 -23.848  0.00  0.00    +0.111 A 
ATOM      4  N   UNL     1       2.691   5.114 -23.424  0.00  0.00    -0.244 NA
ATOM      5  C   UNL     1       3.605   5.849 -22.862  0.00  0.00    +0.088 A 
ATOM      6  C   UNL     1       3.311   7.041 -22.438  0.00  0.00    +0.030 A 
ATOM      7  C   UNL     1       4.225   7.775 -21.876  0.00  0.00    +0.002 A 
ATOM      8  C   UNL     1       5.433   7.316 -21.738  0.00  0.00    +0.002 A 
ATOM      9  C   UNL     1       5.727   6.123 -22.162  0.00  0.00    +0.028 A 
ATOM     10  O   UNL     1       4.488   2.269 -24.135  0.00  0.00    -0.266 OA
ATOM     11  C   UNL     1       4.813   5.389 -22.724  0.00  0.00    +0.071 A 
ENDROOT
BRANCH   1  12
ATOM     12  C   UNL     1       6.316   3.737 -23.011  0.00  0.00    +0.176 C 
BRANCH  12  13
ATOM     13  C   UNL     1       7.005   3.394 -24.058  0.00  0.00    +0.153 C 
BRANCH  13  14
ATOM     14  N   UNL     1       8.283   3.622 -24.099  0.00  0.00    +0.236 N 
ATOM     15  H   UNL     1       9.248   3.503 -24.408  0.00  0.00    +0.203 HD
BRANCH  14  16
ATOM     16  C   UNL     1       8.805   4.537 -23.337  0.00  0.00    +0.128 C 
ATOM     17  C   UNL     1       8.799   5.780 -23.715  0.00  0.00    +0.060 C 
ENDBRANCH  14  16
BRANCH  14  19
ATOM     18  C   UNL     1       9.062   3.215 -26.173  0.00  0.00    +0.060 C 
ATOM     19  C   UNL     1       9.041   2.937 -24.903  0.00  0.00    +0.128 C 
ENDBRANCH  14  19
ENDBRANCH  13  14
ENDBRANCH  12  13
ENDBRANCH   1  12
BRANCH   3  20
ATOM     20  C   UNL     1       2.071   3.187 -24.410  0.00  0.00    +0.096 C 
BRANCH  20  21
ATOM     21  C   UNL     1       0.993   2.876 -23.753  0.00  0.00    -0.034 A 
ATOM     22  C   UNL     1       1.083   2.319 -22.583  0.00  0.00    +0.053 A 
ATOM     23  C   UNL     1       0.005   2.008 -21.926  0.00  0.00    +0.165 A 
ATOM     24  C   UNL     1      -1.163   2.254 -22.440  0.00  0.00    +0.204 A 
ATOM     25  C   UNL     1      -1.254   2.811 -23.611  0.00  0.00    +0.165 A 
ATOM     26  C   UNL     1      -0.175   3.123 -24.268  0.00  0.00    +0.053 A 
BRANCH  25  27
ATOM     27  O   UNL     1      -2.422   3.058 -24.125  0.00  0.00    -0.491 OA
ATOM     28  C   UNL     1      -2.790   4.286 -24.341  0.00  0.00    +0.277 C 
ENDBRANCH  25  27
BRANCH  23  29
ATOM     29  O   UNL     1       0.095   1.450 -20.755  0.00  0.00    -0.491 OA
ATOM     30  C   UNL     1       1.231   1.446 -20.122  0.00  0.00    +0.277 C 
ENDBRANCH  23  29
BRANCH  24  31
ATOM     31  O   UNL     1      -2.241   1.943 -21.783  0.00  0.00    -0.488 OA
ATOM     32  C   UNL     1      -2.721   2.763 -20.895  0.00  0.00    +0.277 C 
ENDBRANCH  24  31
ENDBRANCH  20  21
ENDBRANCH   3  20
TORSDOF 10
ENDMDL
MODEL 8
REMARK VINA RESULT:    -6.546      2.746      5.288
REMARK INTER + INTRA:          -8.764
REMARK INTER:                  -9.919
REMARK INTRA:                   1.155
REMARK UNBOUND:                 1.226
REMARK  Name = ZINC000000689870
REMARK  15 active torsions:
REMARK  status: ('A' for Active; 'I' for Inactive)
REMARK    1  A    between atoms: C_1  and  C_2
REMARK    2  A    between atoms: C_2  and  N_3
REMARK    3  A    between atoms: N_3  and  C_4
REMARK    4  A    between atoms: N_3  and  C_6
REMARK    5  A    between atoms: C_4  and  C_5
REMARK    6  A    between atoms: C_6  and  C_7
REMARK    7  A    between atoms: C_7  and  N_8
REMARK    8  A    between atoms: C_11  and  C_12
REMARK    9  A    between atoms: C_12  and  C_13
REMARK   10  A    between atoms: C_15  and  O_16
REMARK   11  A    between atoms: O_16  and  C_17
REMARK   12  A    between atoms: C_18  and  O_19
REMARK   13  A    between atoms: O_19  and  C_20
REMARK   14  A    between atoms: C_21  and  O_22
REMARK   15  A    between atoms: O_22  and  C_23
REMARK                            x       y       z     vdW  Elec       q    Type
REMARK                         _______ _______ _______ _____ _____    ______ ____
ROOT
ATOM      1  N   UNL     1       5.164   6.686 -21.622  0.00  0.00    -0.300 N 
ATOM      2  C   UNL     1       4.529   5.944 -22.480  0.00  0.00    +0.274 A 
ATOM      3  C   UNL     1       5.033   4.803 -22.850  0.00  0.00    +0.111 A 
ATOM      4  N   UNL     1       6.171   4.407 -22.362  0.00  0.00    -0.244 NA
ATOM      5  C   UNL     1       6.805   5.149 -21.504  0.00  0.00    +0.088 A 
ATOM      6  C   UNL     1       7.942   4.752 -21.016  0.00  0.00    +0.030 A 
ATOM      7  C   UNL     1       8.576   5.495 -20.158  0.00  0.00    +0.002 A 
ATOM      8  C   UNL     1       8.073   6.635 -19.788  0.00  0.00    +0.002 A 
ATOM      9  C   UNL     1       6.936   7.032 -20.276  0.00  0.00    +0.028 A 
ATOM     10  O   UNL     1       3.392   6.341 -22.968  0.00  0.00    -0.266 OA
ATOM     11  C   UNL     1       6.301   6.290 -21.134  0.00  0.00    +0.071 A 
ENDROOT
BRANCH   1  12
ATOM     12  C   UNL     1       4.660   7.826 -21.253  0.00  0.00    +0.176 C 
BRANCH  12  13
ATOM     13  C   UNL     1       4.696   8.845 -22.059  0.00  0.00    +0.153 C 
BRANCH  13  14
ATOM     14  N   UNL     1       4.874  10.043 -21.586  0.00  0.00    +0.236 N 
ATOM     15  H   UNL     1       4.605  10.966 -21.245  0.00  0.00    +0.203 HD
BRANCH  14  16
ATOM     16  C   UNL     1       6.076  10.477 -21.348  0.00  0.00    +0.128 C 
ATOM     17  C   UNL     1       7.026  10.264 -22.209  0.00  0.00    +0.060 C 
ENDBRANCH  14  16
BRANCH  14  19
ATOM     18  C   UNL     1       3.467  11.676 -22.240  0.00  0.00    +0.060 C 
ATOM     19  C   UNL     1       3.849  10.808 -21.351  0.00  0.00    +0.128 C 
ENDBRANCH  14  19
ENDBRANCH  13  14
ENDBRANCH  12  13
ENDBRANCH   1  12
BRANCH   3  20
ATOM     20  C   UNL     1       4.399   4.061 -23.708  0.00  0.00    +0.096 C 
BRANCH  20  21
ATOM     21  C   UNL     1       3.422   3.299 -23.311  0.00  0.00    -0.034 A 
ATOM     22  C   UNL     1       2.273   3.347 -23.915  0.00  0.00    +0.053 A 
ATOM     23  C   UNL     1       1.298   2.586 -23.518  0.00  0.00    +0.165 A 
ATOM     24  C   UNL     1       1.471   1.776 -22.516  0.00  0.00    +0.204 A 
ATOM     25  C   UNL     1       2.621   1.728 -21.911  0.00  0.00    +0.165 A 
ATOM     26  C   UNL     1       3.597   2.490 -22.309  0.00  0.00    +0.053 A 
BRANCH  25  27
ATOM     27  O   UNL     1       2.795   0.918 -20.909  0.00  0.00    -0.491 OA
ATOM     28  C   UNL     1       3.938   0.320 -20.749  0.00  0.00    +0.277 C 
ENDBRANCH  25  27
BRANCH  23  29
ATOM     29  O   UNL     1       0.147   2.633 -24.123  0.00  0.00    -0.491 OA
ATOM     30  C   UNL     1      -0.370   3.781 -24.446  0.00  0.00    +0.277 C 
ENDBRANCH  23  29
BRANCH  24  31
ATOM     31  O   UNL     1       0.496   1.014 -22.118  0.00  0.00    -0.488 OA
ATOM     32  C   UNL     1      -0.406   1.483 -21.308  0.00  0.00    +0.277 C 
ENDBRANCH  24  31
ENDBRANCH  20  21
ENDBRANCH   3  20
TORSDOF 10
ENDMDL
MODEL 9
REMARK VINA RESULT:    -6.536      2.766      5.679
REMARK INTER + INTRA:          -8.749
REMARK INTER:                  -9.898
REMARK INTRA:                   1.149
REMARK UNBOUND:                 1.226
REMARK  Name = ZINC000000689870
REMARK  15 active torsions:
REMARK  status: ('A' for Active; 'I' for Inactive)
REMARK    1  A    between atoms: C_1  and  C_2
REMARK    2  A    between atoms: C_2  and  N_3
REMARK    3  A    between atoms: N_3  and  C_4
REMARK    4  A    between atoms: N_3  and  C_6
REMARK    5  A    between atoms: C_4  and  C_5
REMARK    6  A    between atoms: C_6  and  C_7
REMARK    7  A    between atoms: C_7  and  N_8
REMARK    8  A    between atoms: C_11  and  C_12
REMARK    9  A    between atoms: C_12  and  C_13
REMARK   10  A    between atoms: C_15  and  O_16
REMARK   11  A    between atoms: O_16  and  C_17
REMARK   12  A    between atoms: C_18  and  O_19
REMARK   13  A    between atoms: O_19  and  C_20
REMARK   14  A    between atoms: C_21  and  O_22
REMARK   15  A    between atoms: O_22  and  C_23
REMARK                            x       y       z     vdW  Elec       q    Type
REMARK                         _______ _______ _______ _____ _____    ______ ____
ROOT
ATOM      1  N   UNL     1       5.177   6.721 -21.647  0.00  0.00    -0.300 N 
ATOM      2  C   UNL     1       4.534   5.956 -22.478  0.00  0.00    +0.274 A 
ATOM      3  C   UNL     1       5.054   4.826 -22.856  0.00  0.00    +0.111 A 
ATOM      4  N   UNL     1       6.216   4.461 -22.402  0.00  0.00    -0.244 NA
ATOM      5  C   UNL     1       6.859   5.227 -21.571  0.00  0.00    +0.088 A 
ATOM      6  C   UNL     1       8.021   4.862 -21.117  0.00  0.00    +0.030 A 
ATOM      7  C   UNL     1       8.664   5.628 -20.286  0.00  0.00    +0.002 A 
ATOM      8  C   UNL     1       8.144   6.758 -19.909  0.00  0.00    +0.002 A 
ATOM      9  C   UNL     1       6.982   7.123 -20.362  0.00  0.00    +0.028 A 
ATOM     10  O   UNL     1       3.371   6.320 -22.932  0.00  0.00    -0.266 OA
ATOM     11  C   UNL     1       6.339   6.357 -21.193  0.00  0.00    +0.071 A 
ENDROOT
BRANCH   1  12
ATOM     12  C   UNL     1       4.657   7.852 -21.269  0.00  0.00    +0.176 C 
BRANCH  12  13
ATOM     13  C   UNL     1       4.556   8.835 -22.113  0.00  0.00    +0.153 C 
BRANCH  13  14
ATOM     14  N   UNL     1       5.329   9.874 -21.996  0.00  0.00    +0.236 N 
ATOM     15  H   UNL     1       6.086  10.513 -22.241  0.00  0.00    +0.203 HD
BRANCH  14  16
ATOM     16  C   UNL     1       5.155  10.706 -21.012  0.00  0.00    +0.128 C 
ATOM     17  C   UNL     1       3.957  11.098 -20.696  0.00  0.00    +0.060 C 
ENDBRANCH  14  16
BRANCH  14  19
ATOM     18  C   UNL     1       6.030  10.761 -23.943  0.00  0.00    +0.060 C 
ATOM     19  C   UNL     1       6.276  10.082 -22.862  0.00  0.00    +0.128 C 
ENDBRANCH  14  19
ENDBRANCH  13  14
ENDBRANCH  12  13
ENDBRANCH   1  12
BRANCH   3  20
ATOM     20  C   UNL     1       4.411   4.060 -23.687  0.00  0.00    +0.096 C 
BRANCH  20  21
ATOM     21  C   UNL     1       3.478   3.266 -23.250  0.00  0.00    -0.034 A 
ATOM     22  C   UNL     1       3.695   2.521 -22.208  0.00  0.00    +0.053 A 
ATOM     23  C   UNL     1       2.762   1.727 -21.771  0.00  0.00    +0.165 A 
ATOM     24  C   UNL     1       1.613   1.680 -22.377  0.00  0.00    +0.204 A 
ATOM     25  C   UNL     1       1.396   2.425 -23.419  0.00  0.00    +0.165 A 
ATOM     26  C   UNL     1       2.329   3.219 -23.856  0.00  0.00    +0.053 A 
BRANCH  25  27
ATOM     27  O   UNL     1       0.247   2.378 -24.025  0.00  0.00    -0.491 OA
ATOM     28  C   UNL     1      -0.438   3.469 -24.205  0.00  0.00    +0.277 C 
ENDBRANCH  25  27
BRANCH  23  29
ATOM     29  O   UNL     1       2.979   0.981 -20.729  0.00  0.00    -0.491 OA
ATOM     30  C   UNL     1       4.080   0.297 -20.636  0.00  0.00    +0.277 C 
ENDBRANCH  23  29
BRANCH  24  31
ATOM     31  O   UNL     1       0.680   0.886 -21.940  0.00  0.00    -0.488 OA
ATOM     32  C   UNL     1      -0.221   1.333 -21.117  0.00  0.00    +0.277 C 
ENDBRANCH  24  31
ENDBRANCH  20  21
ENDBRANCH   3  20
TORSDOF 10
ENDMDL
