MODEL 1
REMARK VINA RESULT:    -7.621      0.000      0.000
REMARK INTER + INTRA:          -8.572
REMARK INTER:                  -8.678
REMARK INTRA:                   0.106
REMARK UNBOUND:                 0.162
REMARK  Name = ZINC000014776248
REMARK  5 active torsions:
REMARK  status: ('A' for Active; 'I' for Inactive)
REMARK    1  A    between atoms: C_1  and  O_2
REMARK    2  A    between atoms: O_2  and  C_3
REMARK    3  A    between atoms: C_5  and  O_6
REMARK    4  A    between atoms: C_7  and  O_8
REMARK    5  A    between atoms: O_8  and  C_9
REMARK                            x       y       z     vdW  Elec       q    Type
REMARK                         _______ _______ _______ _____ _____    ______ ____
ROOT
ATOM      1  C   UNL     1      -1.199   2.499 -22.574  0.00  0.00    +0.134 A 
ATOM      2  C   UNL     1      -0.630   2.732 -23.719  0.00  0.00    +0.095 A 
ATOM      3  C   UNL     1      -1.335   3.178 -24.717  0.00  0.00    +0.166 A 
ATOM      4  C   UNL     1      -2.609   3.389 -24.569  0.00  0.00    +0.205 A 
ATOM      5  C   UNL     1      -3.179   3.156 -23.423  0.00  0.00    +0.188 A 
ATOM      6  O   UNL     1      -4.453   3.367 -23.275  0.00  0.00    -0.418 OA
ATOM      7  C   UNL     1      -5.021   3.134 -22.131  0.00  0.00    +0.337 A 
ATOM      8  C   UNL     1      -4.316   2.688 -21.133  0.00  0.00    +0.093 A 
ATOM      9  C   UNL     1      -3.042   2.477 -21.281  0.00  0.00    +0.022 A 
ATOM     10  O   UNL     1      -6.295   3.345 -21.983  0.00  0.00    -0.245 OA
ATOM     11  C   UNL     1      -2.474   2.710 -22.426  0.00  0.00    +0.063 A 
ENDROOT
BRANCH   1  13
ATOM     12  C   UNL     1       0.654   1.482 -21.797  0.00  0.00    +0.277 C 
ATOM     13  O   UNL     1      -0.494   2.053 -21.577  0.00  0.00    -0.494 OA
ENDBRANCH   1  13
BRANCH   4  14
ATOM     14  O   UNL     1      -3.314   3.835 -25.566  0.00  0.00    -0.488 OA
ATOM     15  C   UNL     1      -4.012   3.010 -26.289  0.00  0.00    +0.277 C 
ENDBRANCH   4  14
BRANCH   3  16
ATOM     16  O   UNL     1      -0.767   3.412 -25.862  0.00  0.00    -0.503 OA
ATOM     17  H   UNL     1      -0.984   2.889 -26.609  0.00  0.00    +0.292 HD
ENDBRANCH   3  16
TORSDOF 3
ENDMDL
MODEL 2
REMARK VINA RESULT:    -7.338      1.242      4.143
REMARK INTER + INTRA:          -8.248
REMARK INTER:                  -8.616
REMARK INTRA:                   0.368
REMARK UNBOUND:                 0.162
REMARK  Name = ZINC000014776248
REMARK  5 active torsions:
REMARK  status: ('A' for Active; 'I' for Inactive)
REMARK    1  A    between atoms: C_1  and  O_2
REMARK    2  A    between atoms: O_2  and  C_3
REMARK    3  A    between atoms: C_5  and  O_6
REMARK    4  A    between atoms: C_7  and  O_8
REMARK    5  A    between atoms: O_8  and  C_9
REMARK                            x       y       z     vdW  Elec       q    Type
REMARK                         _______ _______ _______ _____ _____    ______ ____
ROOT
ATOM      1  C   UNL     1      -3.976   3.274 -22.322  0.00  0.00    +0.134 A 
ATOM      2  C   UNL     1      -3.063   2.815 -21.518  0.00  0.00    +0.095 A 
ATOM      3  C   UNL     1      -1.922   2.413 -21.993  0.00  0.00    +0.166 A 
ATOM      4  C   UNL     1      -1.693   2.469 -23.271  0.00  0.00    +0.205 A 
ATOM      5  C   UNL     1      -2.606   2.928 -24.076  0.00  0.00    +0.188 A 
ATOM      6  O   UNL     1      -2.377   2.984 -25.354  0.00  0.00    -0.418 OA
ATOM      7  C   UNL     1      -3.290   3.443 -26.157  0.00  0.00    +0.337 A 
ATOM      8  C   UNL     1      -4.431   3.845 -25.683  0.00  0.00    +0.093 A 
ATOM      9  C   UNL     1      -4.660   3.789 -24.405  0.00  0.00    +0.022 A 
ATOM     10  O   UNL     1      -3.061   3.499 -27.436  0.00  0.00    -0.245 OA
ATOM     11  C   UNL     1      -3.747   3.330 -23.601  0.00  0.00    +0.063 A 
ENDROOT
BRANCH   1  13
ATOM     12  C   UNL     1      -6.079   2.821 -21.656  0.00  0.00    +0.277 C 
ATOM     13  O   UNL     1      -5.117   3.676 -21.847  0.00  0.00    -0.494 OA
ENDBRANCH   1  13
BRANCH   4  14
ATOM     14  O   UNL     1      -0.551   2.067 -23.746  0.00  0.00    -0.488 OA
ATOM     15  C   UNL     1       0.439   2.902 -23.851  0.00  0.00    +0.277 C 
ENDBRANCH   4  14
BRANCH   3  16
ATOM     16  O   UNL     1      -1.009   1.955 -21.189  0.00  0.00    -0.503 OA
ATOM     17  H   UNL     1      -0.509   1.199 -21.429  0.00  0.00    +0.292 HD
ENDBRANCH   3  16
TORSDOF 3
ENDMDL
MODEL 3
REMARK VINA RESULT:    -7.056      2.119      4.732
REMARK INTER + INTRA:          -7.925
REMARK INTER:                  -8.080
REMARK INTRA:                   0.155
REMARK UNBOUND:                 0.162
REMARK  Name = ZINC000014776248
REMARK  5 active torsions:
REMARK  status: ('A' for Active; 'I' for Inactive)
REMARK    1  A    between atoms: C_1  and  O_2
REMARK    2  A    between atoms: O_2  and  C_3
REMARK    3  A    between atoms: C_5  and  O_6
REMARK    4  A    between atoms: C_7  and  O_8
REMARK    5  A    between atoms: O_8  and  C_9
REMARK                            x       y       z     vdW  Elec       q    Type
REMARK                         _______ _______ _______ _____ _____    ______ ____
ROOT
ATOM      1  C   UNL     1      -1.278   2.958 -24.045  0.00  0.00    +0.134 A 
ATOM      2  C   UNL     1      -0.741   3.510 -25.092  0.00  0.00    +0.095 A 
ATOM      3  C   UNL     1       0.552   3.611 -25.182  0.00  0.00    +0.166 A 
ATOM      4  C   UNL     1       1.307   3.162 -24.224  0.00  0.00    +0.205 A 
ATOM      5  C   UNL     1       0.770   2.610 -23.177  0.00  0.00    +0.188 A 
ATOM      6  O   UNL     1       1.526   2.160 -22.219  0.00  0.00    -0.418 OA
ATOM      7  C   UNL     1       0.989   1.608 -21.172  0.00  0.00    +0.337 A 
ATOM      8  C   UNL     1      -0.304   1.506 -21.083  0.00  0.00    +0.093 A 
ATOM      9  C   UNL     1      -1.060   1.956 -22.040  0.00  0.00    +0.022 A 
ATOM     10  O   UNL     1       1.744   1.158 -20.215  0.00  0.00    -0.245 OA
ATOM     11  C   UNL     1      -0.523   2.508 -23.087  0.00  0.00    +0.063 A 
ENDROOT
BRANCH   1  13
ATOM     12  C   UNL     1      -3.335   3.698 -24.588  0.00  0.00    +0.277 C 
ATOM     13  O   UNL     1      -2.571   2.856 -23.955  0.00  0.00    -0.494 OA
ENDBRANCH   1  13
BRANCH   4  14
ATOM     14  O   UNL     1       2.600   3.263 -24.314  0.00  0.00    -0.488 OA
ATOM     15  C   UNL     1       3.234   4.148 -23.603  0.00  0.00    +0.277 C 
ENDBRANCH   4  14
BRANCH   3  16
ATOM     16  O   UNL     1       1.089   4.163 -26.228  0.00  0.00    -0.503 OA
ATOM     17  H   UNL     1       1.648   3.660 -26.789  0.00  0.00    +0.292 HD
ENDBRANCH   3  16
TORSDOF 3
ENDMDL
MODEL 4
REMARK VINA RESULT:    -7.026      1.457      3.540
REMARK INTER + INTRA:          -7.891
REMARK INTER:                  -7.974
REMARK INTRA:                   0.084
REMARK UNBOUND:                 0.162
REMARK  Name = ZINC000014776248
REMARK  5 active torsions:
REMARK  status: ('A' for Active; 'I' for Inactive)
REMARK    1  A    between atoms: C_1  and  O_2
REMARK    2  A    between atoms: O_2  and  C_3
REMARK    3  A    between atoms: C_5  and  O_6
REMARK    4  A    between atoms: C_7  and  O_8
REMARK    5  A    between atoms: O_8  and  C_9
REMARK                            x       y       z     vdW  Elec       q    Type
REMARK                         _______ _______ _______ _____ _____    ______ ____
ROOT
ATOM      1  C   UNL     1      -3.222   3.396 -24.693  0.00  0.00    +0.134 A 
ATOM      2  C   UNL     1      -2.120   3.331 -25.379  0.00  0.00    +0.095 A 
ATOM      3  C   UNL     1      -0.972   3.335 -24.768  0.00  0.00    +0.166 A 
ATOM      4  C   UNL     1      -0.927   3.405 -23.471  0.00  0.00    +0.205 A 
ATOM      5  C   UNL     1      -2.029   3.471 -22.784  0.00  0.00    +0.188 A 
ATOM      6  O   UNL     1      -1.983   3.541 -21.487  0.00  0.00    -0.418 OA
ATOM      7  C   UNL     1      -3.085   3.607 -20.801  0.00  0.00    +0.337 A 
ATOM      8  C   UNL     1      -4.233   3.602 -21.412  0.00  0.00    +0.093 A 
ATOM      9  C   UNL     1      -4.278   3.532 -22.709  0.00  0.00    +0.022 A 
ATOM     10  O   UNL     1      -3.039   3.677 -19.504  0.00  0.00    -0.245 OA
ATOM     11  C   UNL     1      -3.176   3.466 -23.395  0.00  0.00    +0.063 A 
ENDROOT
BRANCH   1  13
ATOM     12  C   UNL     1      -4.444   3.003 -26.543  0.00  0.00    +0.277 C 
ATOM     13  O   UNL     1      -4.369   3.392 -25.304  0.00  0.00    -0.494 OA
ENDBRANCH   1  13
BRANCH   4  14
ATOM     14  O   UNL     1       0.221   3.409 -22.860  0.00  0.00    -0.488 OA
ATOM     15  C   UNL     1       0.774   2.287 -22.509  0.00  0.00    +0.277 C 
ENDBRANCH   4  14
BRANCH   3  16
ATOM     16  O   UNL     1       0.130   3.269 -25.454  0.00  0.00    -0.503 OA
ATOM     17  H   UNL     1       0.112   3.392 -26.384  0.00  0.00    +0.292 HD
ENDBRANCH   3  16
TORSDOF 3
ENDMDL
MODEL 5
REMARK VINA RESULT:    -6.967      1.241      4.595
REMARK INTER + INTRA:          -7.823
REMARK INTER:                  -7.963
REMARK INTRA:                   0.140
REMARK UNBOUND:                 0.162
REMARK  Name = ZINC000014776248
REMARK  5 active torsions:
REMARK  status: ('A' for Active; 'I' for Inactive)
REMARK    1  A    between atoms: C_1  and  O_2
REMARK    2  A    between atoms: O_2  and  C_3
REMARK    3  A    between atoms: C_5  and  O_6
REMARK    4  A    between atoms: C_7  and  O_8
REMARK    5  A    between atoms: O_8  and  C_9
REMARK                            x       y       z     vdW  Elec       q    Type
REMARK                         _______ _______ _______ _____ _____    ______ ____
ROOT
ATOM      1  C   UNL     1      -2.552   3.241 -24.465  0.00  0.00    +0.134 A 
ATOM      2  C   UNL     1      -3.772   3.520 -24.115  0.00  0.00    +0.095 A 
ATOM      3  C   UNL     1      -4.151   3.348 -22.884  0.00  0.00    +0.166 A 
ATOM      4  C   UNL     1      -3.309   2.897 -22.002  0.00  0.00    +0.205 A 
ATOM      5  C   UNL     1      -2.087   2.619 -22.351  0.00  0.00    +0.188 A 
ATOM      6  O   UNL     1      -1.245   2.168 -21.470  0.00  0.00    -0.418 OA
ATOM      7  C   UNL     1      -0.025   1.890 -21.819  0.00  0.00    +0.337 A 
ATOM      8  C   UNL     1       0.353   2.062 -23.051  0.00  0.00    +0.093 A 
ATOM      9  C   UNL     1      -0.489   2.512 -23.933  0.00  0.00    +0.022 A 
ATOM     10  O   UNL     1       0.817   1.440 -20.938  0.00  0.00    -0.245 OA
ATOM     11  C   UNL     1      -1.709   2.791 -23.583  0.00  0.00    +0.063 A 
ENDROOT
BRANCH   1  13
ATOM     12  C   UNL     1      -3.057   3.440 -26.651  0.00  0.00    +0.277 C 
ATOM     13  O   UNL     1      -2.174   3.413 -25.697  0.00  0.00    -0.494 OA
ENDBRANCH   1  13
BRANCH   4  14
ATOM     14  O   UNL     1      -3.687   2.725 -20.770  0.00  0.00    -0.488 OA
ATOM     15  C   UNL     1      -3.335   3.581 -19.857  0.00  0.00    +0.277 C 
ENDBRANCH   4  14
BRANCH   3  16
ATOM     16  O   UNL     1      -5.371   3.626 -22.534  0.00  0.00    -0.503 OA
ATOM     17  H   UNL     1      -5.807   4.369 -22.904  0.00  0.00    +0.292 HD
ENDBRANCH   3  16
TORSDOF 3
ENDMDL
MODEL 6
REMARK VINA RESULT:    -6.845      1.956      2.827
REMARK INTER + INTRA:          -7.684
REMARK INTER:                  -7.850
REMARK INTRA:                   0.166
REMARK UNBOUND:                 0.162
REMARK  Name = ZINC000014776248
REMARK  5 active torsions:
REMARK  status: ('A' for Active; 'I' for Inactive)
REMARK    1  A    between atoms: C_1  and  O_2
REMARK    2  A    between atoms: O_2  and  C_3
REMARK    3  A    between atoms: C_5  and  O_6
REMARK    4  A    between atoms: C_7  and  O_8
REMARK    5  A    between atoms: O_8  and  C_9
REMARK                            x       y       z     vdW  Elec       q    Type
REMARK                         _______ _______ _______ _____ _____    ______ ____
ROOT
ATOM      1  C   UNL     1       1.593   2.118 -23.369  0.00  0.00    +0.134 A 
ATOM      2  C   UNL     1       1.828   2.724 -24.494  0.00  0.00    +0.095 A 
ATOM      3  C   UNL     1       0.871   3.358 -25.104  0.00  0.00    +0.166 A 
ATOM      4  C   UNL     1      -0.322   3.387 -24.588  0.00  0.00    +0.205 A 
ATOM      5  C   UNL     1      -0.558   2.781 -23.462  0.00  0.00    +0.188 A 
ATOM      6  O   UNL     1      -1.751   2.809 -22.946  0.00  0.00    -0.418 OA
ATOM      7  C   UNL     1      -1.986   2.204 -21.821  0.00  0.00    +0.337 A 
ATOM      8  C   UNL     1      -1.029   1.570 -21.211  0.00  0.00    +0.093 A 
ATOM      9  C   UNL     1       0.164   1.541 -21.727  0.00  0.00    +0.022 A 
ATOM     10  O   UNL     1      -3.179   2.232 -21.305  0.00  0.00    -0.245 OA
ATOM     11  C   UNL     1       0.399   2.147 -22.852  0.00  0.00    +0.063 A 
ENDROOT
BRANCH   1  13
ATOM     12  C   UNL     1       3.490   0.908 -23.448  0.00  0.00    +0.277 C 
ATOM     13  O   UNL     1       2.550   1.484 -22.759  0.00  0.00    -0.494 OA
ENDBRANCH   1  13
BRANCH   4  14
ATOM     14  O   UNL     1      -1.279   4.021 -25.198  0.00  0.00    -0.488 OA
ATOM     15  C   UNL     1      -2.214   3.355 -25.808  0.00  0.00    +0.277 C 
ENDBRANCH   4  14
BRANCH   3  16
ATOM     16  O   UNL     1       1.107   3.964 -26.229  0.00  0.00    -0.503 OA
ATOM     17  H   UNL     1       1.814   3.681 -26.775  0.00  0.00    +0.292 HD
ENDBRANCH   3  16
TORSDOF 3
ENDMDL
MODEL 7
REMARK VINA RESULT:    -6.673      1.688      3.655
REMARK INTER + INTRA:          -7.486
REMARK INTER:                  -7.632
REMARK INTRA:                   0.146
REMARK UNBOUND:                 0.162
REMARK  Name = ZINC000014776248
REMARK  5 active torsions:
REMARK  status: ('A' for Active; 'I' for Inactive)
REMARK    1  A    between atoms: C_1  and  O_2
REMARK    2  A    between atoms: O_2  and  C_3
REMARK    3  A    between atoms: C_5  and  O_6
REMARK    4  A    between atoms: C_7  and  O_8
REMARK    5  A    between atoms: O_8  and  C_9
REMARK                            x       y       z     vdW  Elec       q    Type
REMARK                         _______ _______ _______ _____ _____    ______ ____
ROOT
ATOM      1  C   UNL     1      -1.389   3.785 -23.005  0.00  0.00    +0.134 A 
ATOM      2  C   UNL     1      -1.673   3.951 -21.747  0.00  0.00    +0.095 A 
ATOM      3  C   UNL     1      -2.911   3.925 -21.351  0.00  0.00    +0.166 A 
ATOM      4  C   UNL     1      -3.865   3.733 -22.212  0.00  0.00    +0.205 A 
ATOM      5  C   UNL     1      -3.582   3.566 -23.471  0.00  0.00    +0.188 A 
ATOM      6  O   UNL     1      -4.536   3.374 -24.332  0.00  0.00    -0.418 OA
ATOM      7  C   UNL     1      -4.252   3.208 -25.589  0.00  0.00    +0.337 A 
ATOM      8  C   UNL     1      -3.015   3.234 -25.985  0.00  0.00    +0.093 A 
ATOM      9  C   UNL     1      -2.060   3.426 -25.124  0.00  0.00    +0.022 A 
ATOM     10  O   UNL     1      -5.207   3.016 -26.451  0.00  0.00    -0.245 OA
ATOM     11  C   UNL     1      -2.344   3.592 -23.867  0.00  0.00    +0.063 A 
ENDROOT
BRANCH   1  13
ATOM     12  C   UNL     1       0.565   4.881 -23.223  0.00  0.00    +0.277 C 
ATOM     13  O   UNL     1      -0.151   3.811 -23.401  0.00  0.00    -0.494 OA
ENDBRANCH   1  13
BRANCH   4  14
ATOM     14  O   UNL     1      -5.103   3.706 -21.816  0.00  0.00    -0.488 OA
ATOM     15  C   UNL     1      -5.637   2.588 -21.427  0.00  0.00    +0.277 C 
ENDBRANCH   4  14
BRANCH   3  16
ATOM     16  O   UNL     1      -3.194   4.091 -20.094  0.00  0.00    -0.503 OA
ATOM     17  H   UNL     1      -2.980   3.422 -19.472  0.00  0.00    +0.292 HD
ENDBRANCH   3  16
TORSDOF 3
ENDMDL
MODEL 8
REMARK VINA RESULT:    -6.645      1.906      5.156
REMARK INTER + INTRA:          -7.454
REMARK INTER:                  -7.549
REMARK INTRA:                   0.095
REMARK UNBOUND:                 0.162
REMARK  Name = ZINC000014776248
REMARK  5 active torsions:
REMARK  status: ('A' for Active; 'I' for Inactive)
REMARK    1  A    between atoms: C_1  and  O_2
REMARK    2  A    between atoms: O_2  and  C_3
REMARK    3  A    between atoms: C_5  and  O_6
REMARK    4  A    between atoms: C_7  and  O_8
REMARK    5  A    between atoms: O_8  and  C_9
REMARK                            x       y       z     vdW  Elec       q    Type
REMARK                         _______ _______ _______ _____ _____    ______ ____
ROOT
ATOM      1  C   UNL     1      -1.679   2.327 -22.302  0.00  0.00    +0.134 A 
ATOM      2  C   UNL     1      -1.100   1.801 -21.264  0.00  0.00    +0.095 A 
ATOM      3  C   UNL     1       0.197   1.736 -21.205  0.00  0.00    +0.166 A 
ATOM      4  C   UNL     1       0.915   2.197 -22.185  0.00  0.00    +0.205 A 
ATOM      5  C   UNL     1       0.337   2.723 -23.224  0.00  0.00    +0.188 A 
ATOM      6  O   UNL     1       1.056   3.185 -24.204  0.00  0.00    -0.418 OA
ATOM      7  C   UNL     1       0.478   3.710 -25.243  0.00  0.00    +0.337 A 
ATOM      8  C   UNL     1      -0.819   3.775 -25.301  0.00  0.00    +0.093 A 
ATOM      9  C   UNL     1      -1.538   3.314 -24.321  0.00  0.00    +0.022 A 
ATOM     10  O   UNL     1       1.196   4.171 -26.223  0.00  0.00    -0.245 OA
ATOM     11  C   UNL     1      -0.960   2.788 -23.283  0.00  0.00    +0.063 A 
ENDROOT
BRANCH   1  13
ATOM     12  C   UNL     1      -3.661   2.679 -21.293  0.00  0.00    +0.277 C 
ATOM     13  O   UNL     1      -2.976   2.391 -22.360  0.00  0.00    -0.494 OA
ENDBRANCH   1  13
BRANCH   4  14
ATOM     14  O   UNL     1       2.213   2.133 -22.127  0.00  0.00    -0.488 OA
ATOM     15  C   UNL     1       2.829   1.063 -22.533  0.00  0.00    +0.277 C 
ENDBRANCH   4  14
BRANCH   3  16
ATOM     16  O   UNL     1       0.775   1.211 -20.167  0.00  0.00    -0.503 OA
ATOM     17  H   UNL     1       0.378   1.285 -19.321  0.00  0.00    +0.292 HD
ENDBRANCH   3  16
TORSDOF 3
ENDMDL
MODEL 9
REMARK VINA RESULT:    -6.535      3.109      5.509
REMARK INTER + INTRA:          -7.328
REMARK INTER:                  -7.490
REMARK INTRA:                   0.162
REMARK UNBOUND:                 0.162
REMARK  Name = ZINC000014776248
REMARK  5 active torsions:
REMARK  status: ('A' for Active; 'I' for Inactive)
REMARK    1  A    between atoms: C_1  and  O_2
REMARK    2  A    between atoms: O_2  and  C_3
REMARK    3  A    between atoms: C_5  and  O_6
REMARK    4  A    between atoms: C_7  and  O_8
REMARK    5  A    between atoms: O_8  and  C_9
REMARK                            x       y       z     vdW  Elec       q    Type
REMARK                         _______ _______ _______ _____ _____    ______ ____
ROOT
ATOM      1  C   UNL     1       3.250   3.213 -23.070  0.00  0.00    +0.134 A 
ATOM      2  C   UNL     1       3.433   2.389 -22.081  0.00  0.00    +0.095 A 
ATOM      3  C   UNL     1       2.478   1.585 -21.719  0.00  0.00    +0.166 A 
ATOM      4  C   UNL     1       1.339   1.605 -22.345  0.00  0.00    +0.205 A 
ATOM      5  C   UNL     1       1.155   2.429 -23.334  0.00  0.00    +0.188 A 
ATOM      6  O   UNL     1       0.016   2.449 -23.961  0.00  0.00    -0.418 OA
ATOM      7  C   UNL     1      -0.167   3.272 -24.949  0.00  0.00    +0.337 A 
ATOM      8  C   UNL     1       0.788   4.076 -25.312  0.00  0.00    +0.093 A 
ATOM      9  C   UNL     1       1.927   4.056 -24.685  0.00  0.00    +0.022 A 
ATOM     10  O   UNL     1      -1.306   3.292 -25.576  0.00  0.00    -0.245 OA
ATOM     11  C   UNL     1       2.110   3.233 -23.697  0.00  0.00    +0.063 A 
ENDROOT
BRANCH   1  13
ATOM     12  C   UNL     1       5.446   3.689 -23.220  0.00  0.00    +0.277 C 
ATOM     13  O   UNL     1       4.205   4.017 -23.432  0.00  0.00    -0.494 OA
ENDBRANCH   1  13
BRANCH   4  14
ATOM     14  O   UNL     1       0.384   0.801 -21.983  0.00  0.00    -0.488 OA
ATOM     15  C   UNL     1      -0.645   1.264 -21.338  0.00  0.00    +0.277 C 
ENDBRANCH   4  14
BRANCH   3  16
ATOM     16  O   UNL     1       2.661   0.762 -20.730  0.00  0.00    -0.503 OA
ATOM     17  H   UNL     1       3.278   0.061 -20.812  0.00  0.00    +0.292 HD
ENDBRANCH   3  16
TORSDOF 3
ENDMDL
