MODEL 1
REMARK VINA RESULT:    -8.860      0.000      0.000
REMARK INTER + INTRA:         -11.316
REMARK INTER:                 -11.045
REMARK INTRA:                  -0.271
REMARK UNBOUND:                -0.126
REMARK  Name = CN1[C@H]2CC[C@H]1CC(OC(=O)[C@H](O)c1ccccc1)C2                        ZINC000100012021
REMARK  6 active torsions:
REMARK  status: ('A' for Active; 'I' for Inactive)
REMARK    1  A    between atoms: C_1  and  N_2
REMARK    2  A    between atoms: C_8  and  O_9
REMARK    3  A    between atoms: O_9  and  C_10
REMARK    4  A    between atoms: C_10  and  C_12
REMARK    5  A    between atoms: C_12  and  O_13
REMARK    6  A    between atoms: C_12  and  C_14
REMARK                            x       y       z     vdW  Elec       q    Type
REMARK                         _______ _______ _______ _____ _____    ______ ____
ROOT
ATOM      1  O   UNL     1      -0.875   3.541 -22.798  0.00  0.00    -0.459 OA
ENDROOT
BRANCH   1   9
ATOM      2  C   UNL     1      -3.128   3.514 -22.842  0.00  0.00    +0.191 C 
ATOM      3  N   UNL     1      -3.885   3.506 -22.859  0.00  0.00    +0.238 N 
ATOM      4  H   UNL     1      -4.904   3.494 -22.881  0.00  0.00    +0.204 HD
ATOM      5  C   UNL     1      -4.211   3.768 -23.753  0.00  0.00    +0.068 C 
ATOM      6  C   UNL     1      -5.549   3.684 -23.552  0.00  0.00    +0.060 C 
ATOM      7  C   UNL     1      -5.573   3.289 -22.238  0.00  0.00    +0.060 C 
ATOM      8  C   UNL     1      -3.070   3.910 -24.156  0.00  0.00    +0.099 C 
ATOM      9  C   UNL     1      -2.154   3.525 -22.821  0.00  0.00    +0.187 C 
ATOM     10  C   UNL     1      -3.118   3.120 -21.527  0.00  0.00    +0.099 C 
ATOM     11  C   UNL     1      -4.243   3.235 -21.979  0.00  0.00    +0.068 C 
ENDBRANCH   1   9
BRANCH   1  12
ATOM     12  C   UNL     1      -0.252   2.574 -23.394  0.00  0.00    +0.341 C 
ATOM     13  O   UNL     1      -0.489   1.291 -23.035  0.00  0.00    -0.248 OA
BRANCH  12  14
ATOM     14  C   UNL     1       0.598   2.859 -24.335  0.00  0.00    +0.253 C 
BRANCH  14  15
ATOM     15  C   UNL     1       1.871   3.079 -24.040  0.00  0.00    -0.008 A 
ATOM     16  C   UNL     1       2.808   2.118 -24.211  0.00  0.00    +0.007 A 
ATOM     17  C   UNL     1       4.099   2.368 -23.902  0.00  0.00    +0.000 A 
ATOM     18  C   UNL     1       4.458   3.580 -23.421  0.00  0.00    +0.000 A 
ATOM     19  C   UNL     1       3.521   4.541 -23.250  0.00  0.00    +0.000 A 
ATOM     20  C   UNL     1       2.231   4.292 -23.559  0.00  0.00    +0.007 A 
ENDBRANCH  14  15
BRANCH  14  21
ATOM     21  O   UNL     1       0.174   2.929 -25.618  0.00  0.00    -0.376 OA
ATOM     22  H   UNL     1      -0.177   3.817 -25.795  0.00  0.00    +0.211 HD
ENDBRANCH  14  21
ENDBRANCH  12  14
ENDBRANCH   1  12
TORSDOF 5
ENDMDL
MODEL 2
REMARK VINA RESULT:    -8.698      1.264      1.791
REMARK INTER + INTRA:         -11.112
REMARK INTER:                 -10.745
REMARK INTRA:                  -0.367
REMARK UNBOUND:                -0.126
REMARK  Name = CN1[C@H]2CC[C@H]1CC(OC(=O)[C@H](O)c1ccccc1)C2                        ZINC000100012021
REMARK  6 active torsions:
REMARK  status: ('A' for Active; 'I' for Inactive)
REMARK    1  A    between atoms: C_1  and  N_2
REMARK    2  A    between atoms: C_8  and  O_9
REMARK    3  A    between atoms: O_9  and  C_10
REMARK    4  A    between atoms: C_10  and  C_12
REMARK    5  A    between atoms: C_12  and  O_13
REMARK    6  A    between atoms: C_12  and  C_14
REMARK                            x       y       z     vdW  Elec       q    Type
REMARK                         _______ _______ _______ _____ _____    ______ ____
ROOT
ATOM      1  O   UNL     1      -1.395   3.124 -24.873  0.00  0.00    -0.459 OA
ENDROOT
BRANCH   1   9
ATOM      2  C   UNL     1      -3.040   3.089 -23.334  0.00  0.00    +0.191 C 
ATOM      3  N   UNL     1      -3.594   3.078 -22.818  0.00  0.00    +0.238 N 
ATOM      4  H   UNL     1      -4.340   3.063 -22.122  0.00  0.00    +0.204 HD
ATOM      5  C   UNL     1      -4.407   3.507 -23.179  0.00  0.00    +0.068 C 
ATOM      6  C   UNL     1      -5.237   3.375 -22.115  0.00  0.00    +0.060 C 
ATOM      7  C   UNL     1      -4.404   2.733 -21.234  0.00  0.00    +0.060 C 
ATOM      8  C   UNL     1      -3.849   3.732 -24.239  0.00  0.00    +0.099 C 
ATOM      9  C   UNL     1      -2.328   3.103 -23.998  0.00  0.00    +0.187 C 
ATOM     10  C   UNL     1      -2.182   2.447 -22.476  0.00  0.00    +0.099 C 
ATOM     11  C   UNL     1      -3.282   2.640 -21.990  0.00  0.00    +0.068 C 
ENDBRANCH   1   9
BRANCH   1  12
ATOM     12  C   UNL     1      -0.285   3.710 -24.553  0.00  0.00    +0.341 C 
ATOM     13  O   UNL     1      -0.305   4.931 -23.970  0.00  0.00    -0.248 OA
BRANCH  12  14
ATOM     14  C   UNL     1       0.840   3.106 -24.802  0.00  0.00    +0.253 C 
BRANCH  14  15
ATOM     15  C   UNL     1       1.681   2.830 -23.816  0.00  0.00    -0.008 A 
ATOM     16  C   UNL     1       2.882   3.446 -23.725  0.00  0.00    +0.007 A 
ATOM     17  C   UNL     1       3.721   3.146 -22.709  0.00  0.00    +0.000 A 
ATOM     18  C   UNL     1       3.363   2.229 -21.782  0.00  0.00    +0.000 A 
ATOM     19  C   UNL     1       2.161   1.613 -21.874  0.00  0.00    +0.000 A 
ATOM     20  C   UNL     1       1.323   1.913 -22.888  0.00  0.00    +0.007 A 
ENDBRANCH  14  15
BRANCH  14  21
ATOM     21  O   UNL     1       1.144   2.762 -26.075  0.00  0.00    -0.376 OA
ATOM     22  H   UNL     1       2.108   2.759 -26.187  0.00  0.00    +0.211 HD
ENDBRANCH  14  21
ENDBRANCH  12  14
ENDBRANCH   1  12
TORSDOF 5
ENDMDL
MODEL 3
REMARK VINA RESULT:    -8.529      1.827      6.628
REMARK INTER + INTRA:         -10.898
REMARK INTER:                 -10.821
REMARK INTRA:                  -0.077
REMARK UNBOUND:                -0.126
REMARK  Name = CN1[C@H]2CC[C@H]1CC(OC(=O)[C@H](O)c1ccccc1)C2                        ZINC000100012021
REMARK  6 active torsions:
REMARK  status: ('A' for Active; 'I' for Inactive)
REMARK    1  A    between atoms: C_1  and  N_2
REMARK    2  A    between atoms: C_8  and  O_9
REMARK    3  A    between atoms: O_9  and  C_10
REMARK    4  A    between atoms: C_10  and  C_12
REMARK    5  A    between atoms: C_12  and  O_13
REMARK    6  A    between atoms: C_12  and  C_14
REMARK                            x       y       z     vdW  Elec       q    Type
REMARK                         _______ _______ _______ _____ _____    ______ ____
ROOT
ATOM      1  O   UNL     1       0.199   4.184 -24.617  0.00  0.00    -0.459 OA
ENDROOT
BRANCH   1   9
ATOM      2  C   UNL     1       2.330   3.806 -23.989  0.00  0.00    +0.191 C 
ATOM      3  N   UNL     1       3.046   3.678 -23.779  0.00  0.00    +0.238 N 
ATOM      4  H   UNL     1       4.010   3.505 -23.495  0.00  0.00    +0.204 HD
ATOM      5  C   UNL     1       3.332   2.779 -24.070  0.00  0.00    +0.068 C 
ATOM      6  C   UNL     1       4.604   2.771 -23.599  0.00  0.00    +0.060 C 
ATOM      7  C   UNL     1       4.659   4.016 -23.026  0.00  0.00    +0.060 C 
ATOM      8  C   UNL     1       2.242   2.566 -24.571  0.00  0.00    +0.099 C 
ATOM      9  C   UNL     1       1.409   3.972 -24.259  0.00  0.00    +0.187 C 
ATOM     10  C   UNL     1       2.353   5.059 -23.425  0.00  0.00    +0.099 C 
ATOM     11  C   UNL     1       3.407   4.461 -23.297  0.00  0.00    +0.068 C 
ENDBRANCH   1   9
BRANCH   1  12
ATOM     12  C   UNL     1      -0.717   4.123 -23.702  0.00  0.00    +0.341 C 
ATOM     13  O   UNL     1      -0.809   5.096 -22.767  0.00  0.00    -0.248 OA
BRANCH  12  14
ATOM     14  C   UNL     1      -1.538   3.115 -23.702  0.00  0.00    +0.253 C 
BRANCH  14  15
ATOM     15  C   UNL     1      -2.836   3.312 -23.521  0.00  0.00    -0.008 A 
ATOM     16  C   UNL     1      -3.441   2.981 -22.358  0.00  0.00    +0.007 A 
ATOM     17  C   UNL     1      -4.766   3.193 -22.199  0.00  0.00    +0.000 A 
ATOM     18  C   UNL     1      -5.490   3.736 -23.203  0.00  0.00    +0.000 A 
ATOM     19  C   UNL     1      -4.884   4.068 -24.367  0.00  0.00    +0.000 A 
ATOM     20  C   UNL     1      -3.561   3.856 -24.526  0.00  0.00    +0.007 A 
ENDBRANCH  14  15
BRANCH  14  21
ATOM     21  O   UNL     1      -1.058   1.863 -23.887  0.00  0.00    -0.376 OA
ATOM     22  H   UNL     1      -0.231   1.757 -23.390  0.00  0.00    +0.211 HD
ENDBRANCH  14  21
ENDBRANCH  12  14
ENDBRANCH   1  12
TORSDOF 5
ENDMDL
MODEL 4
REMARK VINA RESULT:    -8.505      2.026      6.156
REMARK INTER + INTRA:         -10.869
REMARK INTER:                 -10.695
REMARK INTRA:                  -0.174
REMARK UNBOUND:                -0.126
REMARK  Name = CN1[C@H]2CC[C@H]1CC(OC(=O)[C@H](O)c1ccccc1)C2                        ZINC000100012021
REMARK  6 active torsions:
REMARK  status: ('A' for Active; 'I' for Inactive)
REMARK    1  A    between atoms: C_1  and  N_2
REMARK    2  A    between atoms: C_8  and  O_9
REMARK    3  A    between atoms: O_9  and  C_10
REMARK    4  A    between atoms: C_10  and  C_12
REMARK    5  A    between atoms: C_12  and  O_13
REMARK    6  A    between atoms: C_12  and  C_14
REMARK                            x       y       z     vdW  Elec       q    Type
REMARK                         _______ _______ _______ _____ _____    ______ ____
ROOT
ATOM      1  O   UNL     1      -0.745   3.003 -24.314  0.00  0.00    -0.459 OA
ENDROOT
BRANCH   1   9
ATOM      2  C   UNL     1       0.945   2.438 -22.936  0.00  0.00    +0.191 C 
ATOM      3  N   UNL     1       1.514   2.249 -22.474  0.00  0.00    +0.238 N 
ATOM      4  H   UNL     1       2.281   1.993 -21.851  0.00  0.00    +0.204 HD
ATOM      5  C   UNL     1       2.348   2.696 -22.756  0.00  0.00    +0.068 C 
ATOM      6  C   UNL     1       3.201   2.224 -21.814  0.00  0.00    +0.060 C 
ATOM      7  C   UNL     1       2.347   1.434 -21.086  0.00  0.00    +0.060 C 
ATOM      8  C   UNL     1       1.774   3.236 -23.685  0.00  0.00    +0.099 C 
ATOM      9  C   UNL     1       0.213   2.681 -23.531  0.00  0.00    +0.187 C 
ATOM     10  C   UNL     1       0.065   1.656 -22.229  0.00  0.00    +0.099 C 
ATOM     11  C   UNL     1       1.195   1.630 -21.774  0.00  0.00    +0.068 C 
ENDBRANCH   1   9
BRANCH   1  12
ATOM     12  C   UNL     1      -1.523   3.972 -23.944  0.00  0.00    +0.341 C 
ATOM     13  O   UNL     1      -1.013   5.042 -23.292  0.00  0.00    -0.248 OA
BRANCH  12  14
ATOM     14  C   UNL     1      -2.794   3.894 -24.211  0.00  0.00    +0.253 C 
BRANCH  14  15
ATOM     15  C   UNL     1      -3.650   3.514 -23.273  0.00  0.00    -0.008 A 
ATOM     16  C   UNL     1      -3.226   2.912 -22.139  0.00  0.00    +0.007 A 
ATOM     17  C   UNL     1      -4.119   2.534 -21.198  0.00  0.00    +0.000 A 
ATOM     18  C   UNL     1      -5.439   2.756 -21.389  0.00  0.00    +0.000 A 
ATOM     19  C   UNL     1      -5.863   3.358 -22.525  0.00  0.00    +0.000 A 
ATOM     20  C   UNL     1      -4.971   3.736 -23.464  0.00  0.00    +0.007 A 
ENDBRANCH  14  15
BRANCH  14  21
ATOM     21  O   UNL     1      -3.235   4.205 -25.452  0.00  0.00    -0.376 OA
ATOM     22  H   UNL     1      -4.059   3.725 -25.631  0.00  0.00    +0.211 HD
ENDBRANCH  14  21
ENDBRANCH  12  14
ENDBRANCH   1  12
TORSDOF 5
ENDMDL
MODEL 5
REMARK VINA RESULT:    -8.497      2.028      6.284
REMARK INTER + INTRA:         -10.859
REMARK INTER:                 -10.436
REMARK INTRA:                  -0.423
REMARK UNBOUND:                -0.126
REMARK  Name = CN1[C@H]2CC[C@H]1CC(OC(=O)[C@H](O)c1ccccc1)C2                        ZINC000100012021
REMARK  6 active torsions:
REMARK  status: ('A' for Active; 'I' for Inactive)
REMARK    1  A    between atoms: C_1  and  N_2
REMARK    2  A    between atoms: C_8  and  O_9
REMARK    3  A    between atoms: O_9  and  C_10
REMARK    4  A    between atoms: C_10  and  C_12
REMARK    5  A    between atoms: C_12  and  O_13
REMARK    6  A    between atoms: C_12  and  C_14
REMARK                            x       y       z     vdW  Elec       q    Type
REMARK                         _______ _______ _______ _____ _____    ______ ____
ROOT
ATOM      1  O   UNL     1      -0.398   2.236 -23.804  0.00  0.00    -0.459 OA
ENDROOT
BRANCH   1   9
ATOM      2  C   UNL     1       1.606   2.219 -22.776  0.00  0.00    +0.191 C 
ATOM      3  N   UNL     1       2.279   2.212 -22.429  0.00  0.00    +0.238 N 
ATOM      4  H   UNL     1       3.186   2.203 -21.962  0.00  0.00    +0.204 HD
ATOM      5  C   UNL     1       2.216   1.735 -21.567  0.00  0.00    +0.068 C 
ATOM      6  C   UNL     1       3.497   1.846 -21.139  0.00  0.00    +0.060 C 
ATOM      7  C   UNL     1       4.043   2.548 -22.184  0.00  0.00    +0.060 C 
ATOM      8  C   UNL     1       1.030   1.517 -21.746  0.00  0.00    +0.099 C 
ATOM      9  C   UNL     1       0.741   2.228 -23.222  0.00  0.00    +0.187 C 
ATOM     10  C   UNL     1       2.122   2.921 -23.837  0.00  0.00    +0.099 C 
ATOM     11  C   UNL     1       2.952   2.683 -22.978  0.00  0.00    +0.068 C 
ENDBRANCH   1   9
BRANCH   1  12
ATOM     12  C   UNL     1      -0.894   3.387 -24.137  0.00  0.00    +0.341 C 
ATOM     13  O   UNL     1      -0.866   3.791 -25.428  0.00  0.00    -0.248 OA
BRANCH  12  14
ATOM     14  C   UNL     1      -1.413   4.139 -23.212  0.00  0.00    +0.253 C 
BRANCH  14  15
ATOM     15  C   UNL     1      -2.539   3.778 -22.613  0.00  0.00    -0.008 A 
ATOM     16  C   UNL     1      -3.714   3.758 -23.282  0.00  0.00    +0.007 A 
ATOM     17  C   UNL     1      -4.848   3.386 -22.649  0.00  0.00    +0.000 A 
ATOM     18  C   UNL     1      -4.810   3.032 -21.344  0.00  0.00    +0.000 A 
ATOM     19  C   UNL     1      -3.634   3.052 -20.675  0.00  0.00    +0.000 A 
ATOM     20  C   UNL     1      -2.501   3.423 -21.308  0.00  0.00    +0.007 A 
ENDBRANCH  14  15
BRANCH  14  21
ATOM     21  O   UNL     1      -0.796   5.293 -22.866  0.00  0.00    -0.376 OA
ATOM     22  H   UNL     1      -1.458   5.933 -22.558  0.00  0.00    +0.211 HD
ENDBRANCH  14  21
ENDBRANCH  12  14
ENDBRANCH   1  12
TORSDOF 5
ENDMDL
MODEL 6
REMARK VINA RESULT:    -8.190      2.253      6.198
REMARK INTER + INTRA:         -10.471
REMARK INTER:                  -9.987
REMARK INTRA:                  -0.484
REMARK UNBOUND:                -0.126
REMARK  Name = CN1[C@H]2CC[C@H]1CC(OC(=O)[C@H](O)c1ccccc1)C2                        ZINC000100012021
REMARK  6 active torsions:
REMARK  status: ('A' for Active; 'I' for Inactive)
REMARK    1  A    between atoms: C_1  and  N_2
REMARK    2  A    between atoms: C_8  and  O_9
REMARK    3  A    between atoms: O_9  and  C_10
REMARK    4  A    between atoms: C_10  and  C_12
REMARK    5  A    between atoms: C_12  and  O_13
REMARK    6  A    between atoms: C_12  and  C_14
REMARK                            x       y       z     vdW  Elec       q    Type
REMARK                         _______ _______ _______ _____ _____    ______ ____
ROOT
ATOM      1  O   UNL     1       0.687   2.293 -24.293  0.00  0.00    -0.459 OA
ENDROOT
BRANCH   1   9
ATOM      2  C   UNL     1       2.528   3.427 -23.660  0.00  0.00    +0.191 C 
ATOM      3  N   UNL     1       3.146   3.809 -23.447  0.00  0.00    +0.238 N 
ATOM      4  H   UNL     1       3.978   4.324 -23.160  0.00  0.00    +0.204 HD
ATOM      5  C   UNL     1       2.915   4.746 -23.239  0.00  0.00    +0.068 C 
ATOM      6  C   UNL     1       4.136   5.221 -22.893  0.00  0.00    +0.060 C 
ATOM      7  C   UNL     1       4.893   4.090 -23.058  0.00  0.00    +0.060 C 
ATOM      8  C   UNL     1       1.742   4.542 -23.504  0.00  0.00    +0.099 C 
ATOM      9  C   UNL     1       1.734   2.935 -23.934  0.00  0.00    +0.187 C 
ATOM     10  C   UNL     1       3.258   2.277 -23.835  0.00  0.00    +0.099 C 
ATOM     11  C   UNL     1       3.937   3.218 -23.462  0.00  0.00    +0.068 C 
ENDBRANCH   1   9
BRANCH   1  12
ATOM     12  C   UNL     1      -0.154   1.950 -23.368  0.00  0.00    +0.341 C 
ATOM     13  O   UNL     1       0.259   1.204 -22.317  0.00  0.00    -0.248 OA
BRANCH  12  14
ATOM     14  C   UNL     1      -1.392   2.336 -23.470  0.00  0.00    +0.253 C 
BRANCH  14  15
ATOM     15  C   UNL     1      -2.003   2.897 -22.436  0.00  0.00    -0.008 A 
ATOM     16  C   UNL     1      -2.908   2.212 -21.701  0.00  0.00    +0.007 A 
ATOM     17  C   UNL     1      -3.517   2.807 -20.652  0.00  0.00    +0.000 A 
ATOM     18  C   UNL     1      -3.224   4.088 -20.335  0.00  0.00    +0.000 A 
ATOM     19  C   UNL     1      -2.318   4.773 -21.072  0.00  0.00    +0.000 A 
ATOM     20  C   UNL     1      -1.709   4.179 -22.120  0.00  0.00    +0.007 A 
ENDBRANCH  14  15
BRANCH  14  21
ATOM     21  O   UNL     1      -2.051   2.160 -24.639  0.00  0.00    -0.376 OA
ATOM     22  H   UNL     1      -1.585   1.498 -25.176  0.00  0.00    +0.211 HD
ENDBRANCH  14  21
ENDBRANCH  12  14
ENDBRANCH   1  12
TORSDOF 5
ENDMDL
MODEL 7
REMARK VINA RESULT:    -8.082      1.684      1.962
REMARK INTER + INTRA:         -10.335
REMARK INTER:                  -9.852
REMARK INTRA:                  -0.482
REMARK UNBOUND:                -0.126
REMARK  Name = CN1[C@H]2CC[C@H]1CC(OC(=O)[C@H](O)c1ccccc1)C2                        ZINC000100012021
REMARK  6 active torsions:
REMARK  status: ('A' for Active; 'I' for Inactive)
REMARK    1  A    between atoms: C_1  and  N_2
REMARK    2  A    between atoms: C_8  and  O_9
REMARK    3  A    between atoms: O_9  and  C_10
REMARK    4  A    between atoms: C_10  and  C_12
REMARK    5  A    between atoms: C_12  and  O_13
REMARK    6  A    between atoms: C_12  and  C_14
REMARK                            x       y       z     vdW  Elec       q    Type
REMARK                         _______ _______ _______ _____ _____    ______ ____
ROOT
ATOM      1  O   UNL     1      -1.176   2.997 -21.381  0.00  0.00    -0.459 OA
ENDROOT
BRANCH   1   9
ATOM      2  C   UNL     1      -3.270   3.252 -22.172  0.00  0.00    +0.191 C 
ATOM      3  N   UNL     1      -3.973   3.338 -22.440  0.00  0.00    +0.238 N 
ATOM      4  H   UNL     1      -4.920   3.454 -22.799  0.00  0.00    +0.204 HD
ATOM      5  C   UNL     1      -3.948   3.665 -23.370  0.00  0.00    +0.068 C 
ATOM      6  C   UNL     1      -5.276   3.743 -23.632  0.00  0.00    +0.060 C 
ATOM      7  C   UNL     1      -5.785   3.315 -22.431  0.00  0.00    +0.060 C 
ATOM      8  C   UNL     1      -2.729   3.676 -23.361  0.00  0.00    +0.099 C 
ATOM      9  C   UNL     1      -2.366   3.141 -21.828  0.00  0.00    +0.187 C 
ATOM     10  C   UNL     1      -3.748   2.820 -20.959  0.00  0.00    +0.099 C 
ATOM     11  C   UNL     1      -4.634   3.088 -21.750  0.00  0.00    +0.068 C 
ENDBRANCH   1   9
BRANCH   1  12
ATOM     12  C   UNL     1      -0.560   1.891 -21.659  0.00  0.00    +0.341 C 
ATOM     13  O   UNL     1      -1.183   0.703 -21.481  0.00  0.00    -0.248 OA
BRANCH  12  14
ATOM     14  C   UNL     1       0.659   1.947 -22.110  0.00  0.00    +0.253 C 
BRANCH  14  15
ATOM     15  C   UNL     1       0.960   2.749 -23.121  0.00  0.00    -0.008 A 
ATOM     16  C   UNL     1       0.553   2.471 -24.381  0.00  0.00    +0.007 A 
ATOM     17  C   UNL     1       0.873   3.305 -25.395  0.00  0.00    +0.000 A 
ATOM     18  C   UNL     1       1.601   4.419 -25.152  0.00  0.00    +0.000 A 
ATOM     19  C   UNL     1       2.007   4.696 -23.891  0.00  0.00    +0.000 A 
ATOM     20  C   UNL     1       1.687   3.863 -22.879  0.00  0.00    +0.007 A 
ENDBRANCH  14  15
BRANCH  14  21
ATOM     21  O   UNL     1       1.617   1.180 -21.539  0.00  0.00    -0.376 OA
ATOM     22  H   UNL     1       1.380   1.003 -20.614  0.00  0.00    +0.211 HD
ENDBRANCH  14  21
ENDBRANCH  12  14
ENDBRANCH   1  12
TORSDOF 5
ENDMDL
MODEL 8
REMARK VINA RESULT:    -7.896      2.138      6.482
REMARK INTER + INTRA:         -10.099
REMARK INTER:                  -9.973
REMARK INTRA:                  -0.126
REMARK UNBOUND:                -0.126
REMARK  Name = CN1[C@H]2CC[C@H]1CC(OC(=O)[C@H](O)c1ccccc1)C2                        ZINC000100012021
REMARK  6 active torsions:
REMARK  status: ('A' for Active; 'I' for Inactive)
REMARK    1  A    between atoms: C_1  and  N_2
REMARK    2  A    between atoms: C_8  and  O_9
REMARK    3  A    between atoms: O_9  and  C_10
REMARK    4  A    between atoms: C_10  and  C_12
REMARK    5  A    between atoms: C_12  and  O_13
REMARK    6  A    between atoms: C_12  and  C_14
REMARK                            x       y       z     vdW  Elec       q    Type
REMARK                         _______ _______ _______ _____ _____    ______ ____
ROOT
ATOM      1  O   UNL     1      -0.402   2.359 -23.301  0.00  0.00    -0.459 OA
ENDROOT
BRANCH   1   9
ATOM      2  C   UNL     1       1.674   1.711 -22.711  0.00  0.00    +0.191 C 
ATOM      3  N   UNL     1       2.371   1.494 -22.514  0.00  0.00    +0.238 N 
ATOM      4  H   UNL     1       3.312   1.201 -22.248  0.00  0.00    +0.204 HD
ATOM      5  C   UNL     1       2.988   1.586 -23.279  0.00  0.00    +0.068 C 
ATOM      6  C   UNL     1       4.140   1.153 -22.711  0.00  0.00    +0.060 C 
ATOM      7  C   UNL     1       3.695   0.870 -21.444  0.00  0.00    +0.060 C 
ATOM      8  C   UNL     1       2.088   2.004 -23.987  0.00  0.00    +0.099 C 
ATOM      9  C   UNL     1       0.776   1.991 -22.964  0.00  0.00    +0.187 C 
ATOM     10  C   UNL     1       1.196   1.438 -21.452  0.00  0.00    +0.099 C 
ATOM     11  C   UNL     1       2.386   1.204 -21.570  0.00  0.00    +0.068 C 
ENDBRANCH   1   9
BRANCH   1  12
ATOM     12  C   UNL     1      -0.848   3.471 -22.806  0.00  0.00    +0.341 C 
ATOM     13  O   UNL     1      -0.068   4.577 -22.811  0.00  0.00    -0.248 OA
BRANCH  12  14
ATOM     14  C   UNL     1      -2.049   3.501 -22.310  0.00  0.00    +0.253 C 
BRANCH  14  15
ATOM     15  C   UNL     1      -3.088   3.759 -23.092  0.00  0.00    -0.008 A 
ATOM     16  C   UNL     1      -2.923   4.298 -24.321  0.00  0.00    +0.007 A 
ATOM     17  C   UNL     1      -3.999   4.551 -25.099  0.00  0.00    +0.000 A 
ATOM     18  C   UNL     1      -5.242   4.266 -24.650  0.00  0.00    +0.000 A 
ATOM     19  C   UNL     1      -5.406   3.726 -23.420  0.00  0.00    +0.000 A 
ATOM     20  C   UNL     1      -4.332   3.473 -22.643  0.00  0.00    +0.007 A 
ENDBRANCH  14  15
BRANCH  14  21
ATOM     21  O   UNL     1      -2.231   3.268 -20.989  0.00  0.00    -0.376 OA
ATOM     22  H   UNL     1      -2.214   4.110 -20.507  0.00  0.00    +0.211 HD
ENDBRANCH  14  21
ENDBRANCH  12  14
ENDBRANCH   1  12
TORSDOF 5
ENDMDL
MODEL 9
REMARK VINA RESULT:    -7.780      1.379      2.117
REMARK INTER + INTRA:          -9.952
REMARK INTER:                  -9.627
REMARK INTRA:                  -0.325
REMARK UNBOUND:                -0.126
REMARK  Name = CN1[C@H]2CC[C@H]1CC(OC(=O)[C@H](O)c1ccccc1)C2                        ZINC000100012021
REMARK  6 active torsions:
REMARK  status: ('A' for Active; 'I' for Inactive)
REMARK    1  A    between atoms: C_1  and  N_2
REMARK    2  A    between atoms: C_8  and  O_9
REMARK    3  A    between atoms: O_9  and  C_10
REMARK    4  A    between atoms: C_10  and  C_12
REMARK    5  A    between atoms: C_12  and  O_13
REMARK    6  A    between atoms: C_12  and  C_14
REMARK                            x       y       z     vdW  Elec       q    Type
REMARK                         _______ _______ _______ _____ _____    ______ ____
ROOT
ATOM      1  O   UNL     1       0.367   3.356 -23.245  0.00  0.00    -0.459 OA
ENDROOT
BRANCH   1   9
ATOM      2  C   UNL     1      -1.734   3.582 -24.027  0.00  0.00    +0.191 C 
ATOM      3  N   UNL     1      -2.439   3.658 -24.292  0.00  0.00    +0.238 N 
ATOM      4  H   UNL     1      -3.390   3.761 -24.647  0.00  0.00    +0.204 HD
ATOM      5  C   UNL     1      -2.434   3.689 -25.278  0.00  0.00    +0.068 C 
ATOM      6  C   UNL     1      -3.762   3.824 -25.519  0.00  0.00    +0.060 C 
ATOM      7  C   UNL     1      -4.243   3.830 -24.234  0.00  0.00    +0.060 C 
ATOM      8  C   UNL     1      -1.221   3.573 -25.301  0.00  0.00    +0.099 C 
ATOM      9  C   UNL     1      -0.827   3.484 -23.687  0.00  0.00    +0.187 C 
ATOM     10  C   UNL     1      -2.184   3.585 -22.729  0.00  0.00    +0.099 C 
ATOM     11  C   UNL     1      -3.083   3.697 -23.543  0.00  0.00    +0.068 C 
ENDBRANCH   1   9
BRANCH   1  12
ATOM     12  C   UNL     1       0.910   2.181 -23.316  0.00  0.00    +0.341 C 
ATOM     13  O   UNL     1       0.371   1.142 -22.638  0.00  0.00    -0.248 OA
BRANCH  12  14
ATOM     14  C   UNL     1       1.974   2.024 -24.047  0.00  0.00    +0.253 C 
BRANCH  14  15
ATOM     15  C   UNL     1       3.177   2.206 -23.522  0.00  0.00    -0.008 A 
ATOM     16  C   UNL     1       3.792   3.410 -23.576  0.00  0.00    +0.007 A 
ATOM     17  C   UNL     1       5.018   3.569 -23.032  0.00  0.00    +0.000 A 
ATOM     18  C   UNL     1       5.634   2.525 -22.433  0.00  0.00    +0.000 A 
ATOM     19  C   UNL     1       5.018   1.321 -22.378  0.00  0.00    +0.000 A 
ATOM     20  C   UNL     1       3.793   1.162 -22.921  0.00  0.00    +0.007 A 
ENDBRANCH  14  15
BRANCH  14  21
ATOM     21  O   UNL     1       1.844   1.674 -25.348  0.00  0.00    -0.376 OA
ATOM     22  H   UNL     1       1.464   0.783 -25.406  0.00  0.00    +0.211 HD
ENDBRANCH  14  21
ENDBRANCH  12  14
ENDBRANCH   1  12
TORSDOF 5
ENDMDL
