MODEL 1
REMARK VINA RESULT:    -6.126      0.000      0.000
REMARK INTER + INTRA:          -7.370
REMARK INTER:                  -6.915
REMARK INTRA:                  -0.455
REMARK UNBOUND:                -0.348
REMARK  Name = ZINC000000162391
REMARK  4 active torsions:
REMARK  status: ('A' for Active; 'I' for Inactive)
REMARK    1  A    between atoms: C_1  and  O_2
REMARK    2  A    between atoms: O_2  and  C_3
REMARK    3  A    between atoms: C_6  and  C_7
REMARK    4  A    between atoms: C_10  and  O_11
REMARK                            x       y       z     vdW  Elec       q    Type
REMARK                         _______ _______ _______ _____ _____    ______ ____
ROOT
ATOM      1  C   UNL     1      -3.877   3.385 -21.902  0.00  0.00    +0.124 A 
ATOM      2  C   UNL     1      -3.022   3.339 -20.924  0.00  0.00    +0.046 A 
ATOM      3  C   UNL     1      -1.808   2.929 -21.141  0.00  0.00    +0.017 A 
ATOM      4  C   UNL     1      -1.449   2.565 -22.336  0.00  0.00    +0.039 A 
ATOM      5  C   UNL     1      -2.304   2.611 -23.314  0.00  0.00    +0.129 A 
ATOM      6  C   UNL     1      -3.518   3.021 -23.097  0.00  0.00    +0.091 A 
ENDROOT
BRANCH   4   7
ATOM      7  C   UNL     1      -0.234   2.154 -22.553  0.00  0.00    +0.075 C 
ATOM      8  O   UNL     1       0.063   0.897 -22.407  0.00  0.00    -0.545 OA
ATOM      9  O   UNL     1       0.683   3.001 -22.916  0.00  0.00    -0.545 OA
ENDBRANCH   4   7
BRANCH   1  11
ATOM     10  C   UNL     1      -6.101   3.073 -22.069  0.00  0.00    +0.277 C 
ATOM     11  O   UNL     1      -5.092   3.796 -21.685  0.00  0.00    -0.495 OA
ENDBRANCH   1  11
BRANCH   5  12
ATOM     12  O   UNL     1      -1.944   2.246 -24.509  0.00  0.00    -0.506 OA
ATOM     13  H   UNL     1      -1.744   2.893 -25.156  0.00  0.00    +0.292 HD
ENDBRANCH   5  12
TORSDOF 3
ENDMDL
MODEL 2
REMARK VINA RESULT:    -6.069      2.598      3.976
REMARK INTER + INTRA:          -7.304
REMARK INTER:                  -6.954
REMARK INTRA:                  -0.350
REMARK UNBOUND:                -0.348
REMARK  Name = ZINC000000162391
REMARK  4 active torsions:
REMARK  status: ('A' for Active; 'I' for Inactive)
REMARK    1  A    between atoms: C_1  and  O_2
REMARK    2  A    between atoms: O_2  and  C_3
REMARK    3  A    between atoms: C_6  and  C_7
REMARK    4  A    between atoms: C_10  and  O_11
REMARK                            x       y       z     vdW  Elec       q    Type
REMARK                         _______ _______ _______ _____ _____    ______ ____
ROOT
ATOM      1  C   UNL     1      -3.859   4.086 -24.667  0.00  0.00    +0.124 A 
ATOM      2  C   UNL     1      -2.729   3.884 -24.056  0.00  0.00    +0.046 A 
ATOM      3  C   UNL     1      -2.720   3.542 -22.802  0.00  0.00    +0.017 A 
ATOM      4  C   UNL     1      -3.841   3.401 -22.159  0.00  0.00    +0.039 A 
ATOM      5  C   UNL     1      -4.971   3.603 -22.770  0.00  0.00    +0.129 A 
ATOM      6  C   UNL     1      -4.980   3.945 -24.024  0.00  0.00    +0.091 A 
ENDROOT
BRANCH   4   7
ATOM      7  C   UNL     1      -3.833   3.059 -20.905  0.00  0.00    +0.075 C 
ATOM      8  O   UNL     1      -3.235   3.812 -20.030  0.00  0.00    -0.545 OA
ATOM      9  O   UNL     1      -4.423   1.964 -20.526  0.00  0.00    -0.545 OA
ENDBRANCH   4   7
BRANCH   1  11
ATOM     10  C   UNL     1      -3.400   3.615 -26.821  0.00  0.00    +0.277 C 
ATOM     11  O   UNL     1      -3.867   4.428 -25.922  0.00  0.00    -0.495 OA
ENDBRANCH   1  11
BRANCH   5  12
ATOM     12  O   UNL     1      -6.093   3.462 -22.127  0.00  0.00    -0.506 OA
ATOM     13  H   UNL     1      -6.183   3.812 -21.263  0.00  0.00    +0.292 HD
ENDBRANCH   5  12
TORSDOF 3
ENDMDL
MODEL 3
REMARK VINA RESULT:    -5.889      1.941      4.241
REMARK INTER + INTRA:          -7.098
REMARK INTER:                  -6.650
REMARK INTRA:                  -0.448
REMARK UNBOUND:                -0.348
REMARK  Name = ZINC000000162391
REMARK  4 active torsions:
REMARK  status: ('A' for Active; 'I' for Inactive)
REMARK    1  A    between atoms: C_1  and  O_2
REMARK    2  A    between atoms: O_2  and  C_3
REMARK    3  A    between atoms: C_6  and  C_7
REMARK    4  A    between atoms: C_10  and  O_11
REMARK                            x       y       z     vdW  Elec       q    Type
REMARK                         _______ _______ _______ _____ _____    ______ ____
ROOT
ATOM      1  C   UNL     1      -2.217   2.802 -22.077  0.00  0.00    +0.124 A 
ATOM      2  C   UNL     1      -1.730   3.023 -23.262  0.00  0.00    +0.046 A 
ATOM      3  C   UNL     1      -2.513   3.408 -24.225  0.00  0.00    +0.017 A 
ATOM      4  C   UNL     1      -3.783   3.572 -24.003  0.00  0.00    +0.039 A 
ATOM      5  C   UNL     1      -4.270   3.350 -22.818  0.00  0.00    +0.129 A 
ATOM      6  C   UNL     1      -3.487   2.965 -21.855  0.00  0.00    +0.091 A 
ENDROOT
BRANCH   4   7
ATOM      7  C   UNL     1      -4.568   3.957 -24.966  0.00  0.00    +0.075 C 
ATOM      8  O   UNL     1      -5.064   3.081 -25.789  0.00  0.00    -0.545 OA
ATOM      9  O   UNL     1      -4.855   5.217 -25.107  0.00  0.00    -0.545 OA
ENDBRANCH   4   7
BRANCH   1  11
ATOM     10  C   UNL     1      -0.358   1.737 -21.382  0.00  0.00    +0.277 C 
ATOM     11  O   UNL     1      -1.432   2.417 -21.114  0.00  0.00    -0.495 OA
ENDBRANCH   1  11
BRANCH   5  12
ATOM     12  O   UNL     1      -5.541   3.514 -22.597  0.00  0.00    -0.506 OA
ATOM     13  H   UNL     1      -6.160   3.348 -23.279  0.00  0.00    +0.292 HD
ENDBRANCH   5  12
TORSDOF 3
ENDMDL
MODEL 4
REMARK VINA RESULT:    -5.792      2.025      4.240
REMARK INTER + INTRA:          -6.986
REMARK INTER:                  -6.615
REMARK INTRA:                  -0.372
REMARK UNBOUND:                -0.348
REMARK  Name = ZINC000000162391
REMARK  4 active torsions:
REMARK  status: ('A' for Active; 'I' for Inactive)
REMARK    1  A    between atoms: C_1  and  O_2
REMARK    2  A    between atoms: O_2  and  C_3
REMARK    3  A    between atoms: C_6  and  C_7
REMARK    4  A    between atoms: C_10  and  O_11
REMARK                            x       y       z     vdW  Elec       q    Type
REMARK                         _______ _______ _______ _____ _____    ______ ____
ROOT
ATOM      1  C   UNL     1      -1.020   2.883 -22.938  0.00  0.00    +0.124 A 
ATOM      2  C   UNL     1      -2.226   3.069 -22.488  0.00  0.00    +0.046 A 
ATOM      3  C   UNL     1      -3.187   3.368 -23.310  0.00  0.00    +0.017 A 
ATOM      4  C   UNL     1      -2.943   3.480 -24.582  0.00  0.00    +0.039 A 
ATOM      5  C   UNL     1      -1.738   3.294 -25.032  0.00  0.00    +0.129 A 
ATOM      6  C   UNL     1      -0.777   2.996 -24.210  0.00  0.00    +0.091 A 
ENDROOT
BRANCH   4   7
ATOM      7  C   UNL     1      -3.905   3.779 -25.404  0.00  0.00    +0.075 C 
ATOM      8  O   UNL     1      -4.455   4.957 -25.361  0.00  0.00    -0.545 OA
ATOM      9  O   UNL     1      -4.317   2.901 -26.270  0.00  0.00    -0.545 OA
ENDBRANCH   4   7
BRANCH   1  11
ATOM     10  C   UNL     1      -0.188   1.580 -21.300  0.00  0.00    +0.277 C 
ATOM     11  O   UNL     1      -0.059   2.584 -22.115  0.00  0.00    -0.495 OA
ENDBRANCH   1  11
BRANCH   5  12
ATOM     12  O   UNL     1      -1.495   3.407 -26.304  0.00  0.00    -0.506 OA
ATOM     13  H   UNL     1      -1.772   4.172 -26.768  0.00  0.00    +0.292 HD
ENDBRANCH   5  12
TORSDOF 3
ENDMDL
MODEL 5
REMARK VINA RESULT:    -5.709      1.880      2.155
REMARK INTER + INTRA:          -6.892
REMARK INTER:                  -6.550
REMARK INTRA:                  -0.341
REMARK UNBOUND:                -0.348
REMARK  Name = ZINC000000162391
REMARK  4 active torsions:
REMARK  status: ('A' for Active; 'I' for Inactive)
REMARK    1  A    between atoms: C_1  and  O_2
REMARK    2  A    between atoms: O_2  and  C_3
REMARK    3  A    between atoms: C_6  and  C_7
REMARK    4  A    between atoms: C_10  and  O_11
REMARK                            x       y       z     vdW  Elec       q    Type
REMARK                         _______ _______ _______ _____ _____    ______ ____
ROOT
ATOM      1  C   UNL     1      -3.102   3.424 -23.199  0.00  0.00    +0.124 A 
ATOM      2  C   UNL     1      -2.226   3.794 -22.312  0.00  0.00    +0.046 A 
ATOM      3  C   UNL     1      -0.995   4.011 -22.667  0.00  0.00    +0.017 A 
ATOM      4  C   UNL     1      -0.639   3.859 -23.908  0.00  0.00    +0.039 A 
ATOM      5  C   UNL     1      -1.515   3.489 -24.794  0.00  0.00    +0.129 A 
ATOM      6  C   UNL     1      -2.747   3.272 -24.440  0.00  0.00    +0.091 A 
ENDROOT
BRANCH   4   7
ATOM      7  C   UNL     1       0.593   4.076 -24.262  0.00  0.00    +0.075 C 
ATOM      8  O   UNL     1       1.282   3.130 -24.829  0.00  0.00    -0.545 OA
ATOM      9  O   UNL     1       1.135   5.238 -24.051  0.00  0.00    -0.545 OA
ENDBRANCH   4   7
BRANCH   1  11
ATOM     10  C   UNL     1      -5.307   3.788 -23.481  0.00  0.00    +0.277 C 
ATOM     11  O   UNL     1      -4.334   3.207 -22.844  0.00  0.00    -0.495 OA
ENDBRANCH   1  11
BRANCH   5  12
ATOM     12  O   UNL     1      -1.159   3.336 -26.036  0.00  0.00    -0.506 OA
ATOM     13  H   UNL     1      -1.396   2.557 -26.498  0.00  0.00    +0.292 HD
ENDBRANCH   5  12
TORSDOF 3
ENDMDL
MODEL 6
REMARK VINA RESULT:    -5.683      1.559      2.169
REMARK INTER + INTRA:          -6.862
REMARK INTER:                  -6.404
REMARK INTRA:                  -0.457
REMARK UNBOUND:                -0.348
REMARK  Name = ZINC000000162391
REMARK  4 active torsions:
REMARK  status: ('A' for Active; 'I' for Inactive)
REMARK    1  A    between atoms: C_1  and  O_2
REMARK    2  A    between atoms: O_2  and  C_3
REMARK    3  A    between atoms: C_6  and  C_7
REMARK    4  A    between atoms: C_10  and  O_11
REMARK                            x       y       z     vdW  Elec       q    Type
REMARK                         _______ _______ _______ _____ _____    ______ ____
ROOT
ATOM      1  C   UNL     1      -2.042   2.626 -22.620  0.00  0.00    +0.124 A 
ATOM      2  C   UNL     1      -1.561   2.239 -21.476  0.00  0.00    +0.046 A 
ATOM      3  C   UNL     1      -0.321   1.861 -21.387  0.00  0.00    +0.017 A 
ATOM      4  C   UNL     1       0.438   1.869 -22.441  0.00  0.00    +0.039 A 
ATOM      5  C   UNL     1      -0.043   2.256 -23.586  0.00  0.00    +0.129 A 
ATOM      6  C   UNL     1      -1.283   2.634 -23.675  0.00  0.00    +0.091 A 
ENDROOT
BRANCH   4   7
ATOM      7  C   UNL     1       1.679   1.491 -22.353  0.00  0.00    +0.075 C 
ATOM      8  O   UNL     1       1.995   0.246 -22.555  0.00  0.00    -0.545 OA
ATOM      9  O   UNL     1       2.604   2.357 -22.062  0.00  0.00    -0.545 OA
ENDBRANCH   4   7
BRANCH   1  11
ATOM     10  C   UNL     1      -3.945   3.321 -21.637  0.00  0.00    +0.277 C 
ATOM     11  O   UNL     1      -3.283   3.004 -22.709  0.00  0.00    -0.495 OA
ENDBRANCH   1  11
BRANCH   5  12
ATOM     12  O   UNL     1       0.717   2.264 -24.641  0.00  0.00    -0.506 OA
ATOM     13  H   UNL     1       0.427   2.688 -25.424  0.00  0.00    +0.292 HD
ENDBRANCH   5  12
TORSDOF 3
ENDMDL
MODEL 7
REMARK VINA RESULT:    -5.638      2.168      2.971
REMARK INTER + INTRA:          -6.810
REMARK INTER:                  -6.469
REMARK INTRA:                  -0.340
REMARK UNBOUND:                -0.348
REMARK  Name = ZINC000000162391
REMARK  4 active torsions:
REMARK  status: ('A' for Active; 'I' for Inactive)
REMARK    1  A    between atoms: C_1  and  O_2
REMARK    2  A    between atoms: O_2  and  C_3
REMARK    3  A    between atoms: C_6  and  C_7
REMARK    4  A    between atoms: C_10  and  O_11
REMARK                            x       y       z     vdW  Elec       q    Type
REMARK                         _______ _______ _______ _____ _____    ______ ____
ROOT
ATOM      1  C   UNL     1      -1.689   2.848 -22.285  0.00  0.00    +0.124 A 
ATOM      2  C   UNL     1      -1.652   4.141 -22.421  0.00  0.00    +0.046 A 
ATOM      3  C   UNL     1      -0.745   4.689 -23.173  0.00  0.00    +0.017 A 
ATOM      4  C   UNL     1       0.125   3.946 -23.789  0.00  0.00    +0.039 A 
ATOM      5  C   UNL     1       0.088   2.653 -23.653  0.00  0.00    +0.129 A 
ATOM      6  C   UNL     1      -0.819   2.105 -22.901  0.00  0.00    +0.091 A 
ENDROOT
BRANCH   4   7
ATOM      7  C   UNL     1       1.032   4.494 -24.542  0.00  0.00    +0.075 C 
ATOM      8  O   UNL     1       1.128   4.157 -25.794  0.00  0.00    -0.545 OA
ATOM      9  O   UNL     1       1.843   5.379 -24.043  0.00  0.00    -0.545 OA
ENDBRANCH   4   7
BRANCH   1  11
ATOM     10  C   UNL     1      -3.564   3.021 -21.049  0.00  0.00    +0.277 C 
ATOM     11  O   UNL     1      -2.597   2.300 -21.532  0.00  0.00    -0.495 OA
ENDBRANCH   1  11
BRANCH   5  12
ATOM     12  O   UNL     1       0.959   1.909 -24.269  0.00  0.00    -0.506 OA
ATOM     13  H   UNL     1       1.216   2.119 -25.145  0.00  0.00    +0.292 HD
ENDBRANCH   5  12
TORSDOF 3
ENDMDL
MODEL 8
REMARK VINA RESULT:    -5.632      2.455      4.447
REMARK INTER + INTRA:          -6.804
REMARK INTER:                  -6.357
REMARK INTRA:                  -0.447
REMARK UNBOUND:                -0.348
REMARK  Name = ZINC000000162391
REMARK  4 active torsions:
REMARK  status: ('A' for Active; 'I' for Inactive)
REMARK    1  A    between atoms: C_1  and  O_2
REMARK    2  A    between atoms: O_2  and  C_3
REMARK    3  A    between atoms: C_6  and  C_7
REMARK    4  A    between atoms: C_10  and  O_11
REMARK                            x       y       z     vdW  Elec       q    Type
REMARK                         _______ _______ _______ _____ _____    ______ ____
ROOT
ATOM      1  C   UNL     1       0.465   4.818 -23.598  0.00  0.00    +0.124 A 
ATOM      2  C   UNL     1      -0.399   5.412 -22.829  0.00  0.00    +0.046 A 
ATOM      3  C   UNL     1      -1.484   4.793 -22.470  0.00  0.00    +0.017 A 
ATOM      4  C   UNL     1      -1.705   3.580 -22.880  0.00  0.00    +0.039 A 
ATOM      5  C   UNL     1      -0.841   2.985 -23.649  0.00  0.00    +0.129 A 
ATOM      6  C   UNL     1       0.244   3.605 -24.008  0.00  0.00    +0.091 A 
ENDROOT
BRANCH   4   7
ATOM      7  C   UNL     1      -2.791   2.959 -22.522  0.00  0.00    +0.075 C 
ATOM      8  O   UNL     1      -2.779   2.177 -21.484  0.00  0.00    -0.545 OA
ATOM      9  O   UNL     1      -3.887   3.122 -23.201  0.00  0.00    -0.545 OA
ENDBRANCH   4   7
BRANCH   1  11
ATOM     10  C   UNL     1       2.599   5.409 -23.191  0.00  0.00    +0.277 C 
ATOM     11  O   UNL     1       1.550   5.438 -23.956  0.00  0.00    -0.495 OA
ENDBRANCH   1  11
BRANCH   5  12
ATOM     12  O   UNL     1      -1.063   1.771 -24.059  0.00  0.00    -0.506 OA
ATOM     13  H   UNL     1      -1.248   1.609 -24.962  0.00  0.00    +0.292 HD
ENDBRANCH   5  12
TORSDOF 3
ENDMDL
MODEL 9
REMARK VINA RESULT:    -5.558      2.064      4.508
REMARK INTER + INTRA:          -6.718
REMARK INTER:                  -6.370
REMARK INTRA:                  -0.348
REMARK UNBOUND:                -0.348
REMARK  Name = ZINC000000162391
REMARK  4 active torsions:
REMARK  status: ('A' for Active; 'I' for Inactive)
REMARK    1  A    between atoms: C_1  and  O_2
REMARK    2  A    between atoms: O_2  and  C_3
REMARK    3  A    between atoms: C_6  and  C_7
REMARK    4  A    between atoms: C_10  and  O_11
REMARK                            x       y       z     vdW  Elec       q    Type
REMARK                         _______ _______ _______ _____ _____    ______ ____
ROOT
ATOM      1  C   UNL     1      -1.425   4.327 -23.365  0.00  0.00    +0.124 A 
ATOM      2  C   UNL     1      -2.281   3.668 -24.088  0.00  0.00    +0.046 A 
ATOM      3  C   UNL     1      -3.369   3.206 -23.547  0.00  0.00    +0.017 A 
ATOM      4  C   UNL     1      -3.601   3.404 -22.284  0.00  0.00    +0.039 A 
ATOM      5  C   UNL     1      -2.745   4.063 -21.561  0.00  0.00    +0.129 A 
ATOM      6  C   UNL     1      -1.657   4.525 -22.101  0.00  0.00    +0.091 A 
ENDROOT
BRANCH   4   7
ATOM      7  C   UNL     1      -4.690   2.942 -21.742  0.00  0.00    +0.075 C 
ATOM      8  O   UNL     1      -5.850   3.331 -22.183  0.00  0.00    -0.545 OA
ATOM      9  O   UNL     1      -4.618   2.093 -20.761  0.00  0.00    -0.545 OA
ENDBRANCH   4   7
BRANCH   1  11
ATOM     10  C   UNL     1       0.775   4.124 -23.801  0.00  0.00    +0.277 C 
ATOM     11  O   UNL     1      -0.337   4.789 -23.906  0.00  0.00    -0.495 OA
ENDBRANCH   1  11
BRANCH   5  12
ATOM     12  O   UNL     1      -2.978   4.260 -20.296  0.00  0.00    -0.506 OA
ATOM     13  H   UNL     1      -2.732   3.611 -19.669  0.00  0.00    +0.292 HD
ENDBRANCH   5  12
TORSDOF 3
ENDMDL
