MODEL 1
REMARK VINA RESULT:    -9.819      0.000      0.000
REMARK INTER + INTRA:         -14.653
REMARK INTER:                 -13.697
REMARK INTRA:                  -0.956
REMARK UNBOUND:                -0.816
REMARK  Name = CCCOc1ccc(C(=O)OC[C@@H]2CCC[N@+]3(C)CCCC[C@@H]23)cc1                 ZINC000253377313
REMARK  9 active torsions:
REMARK  status: ('A' for Active; 'I' for Inactive)
REMARK    1  A    between atoms: C_1  and  C_2
REMARK    2  A    between atoms: C_2  and  C_3
REMARK    3  A    between atoms: C_3  and  O_4
REMARK    4  A    between atoms: O_4  and  C_5
REMARK    5  A    between atoms: C_8  and  C_9
REMARK    6  A    between atoms: C_9  and  O_11
REMARK    7  A    between atoms: O_11  and  C_12
REMARK    8  A    between atoms: C_12  and  C_13
REMARK    9  A    between atoms: N_17  and  C_18
REMARK                            x       y       z     vdW  Elec       q    Type
REMARK                         _______ _______ _______ _____ _____    ______ ____
ROOT
ATOM      1  O   UNL     1      -0.674   3.344 -25.036  0.00  0.00    -0.461 OA
ENDROOT
BRANCH   1   2
ATOM      2  C   UNL     1       0.626   3.371 -25.028  0.00  0.00    +0.339 C 
ATOM      3  O   UNL     1       1.264   4.240 -25.755  0.00  0.00    -0.245 OA
BRANCH   2   7
ATOM      4  C   UNL     1       2.611   0.841 -22.820  0.00  0.00    +0.121 A 
ATOM      5  C   UNL     1       2.947   1.022 -24.062  0.00  0.00    +0.046 A 
ATOM      6  C   UNL     1       2.285   1.866 -24.799  0.00  0.00    +0.018 A 
ATOM      7  C   UNL     1       1.288   2.527 -24.292  0.00  0.00    +0.059 A 
ATOM      8  C   UNL     1       0.952   2.346 -23.049  0.00  0.00    +0.018 A 
ATOM      9  C   UNL     1       1.613   1.503 -22.313  0.00  0.00    +0.046 A 
BRANCH   4  10
ATOM     10  O   UNL     1       3.272  -0.002 -22.084  0.00  0.00    -0.492 OA
BRANCH  10  11
ATOM     11  C   UNL     1       3.801   0.390 -20.963  0.00  0.00    +0.229 C 
BRANCH  11  13
ATOM     12  C   UNL     1       5.189   2.162 -21.034  0.00  0.00    +0.007 C 
ATOM     13  C   UNL     1       5.006   0.877 -20.948  0.00  0.00    +0.038 C 
ENDBRANCH  11  13
ENDBRANCH  10  11
ENDBRANCH   4  10
ENDBRANCH   2   7
ENDBRANCH   1   2
BRANCH   1  14
ATOM     14  C   UNL     1      -1.346   4.280 -24.432  0.00  0.00    +0.241 C 
BRANCH  14  15
ATOM     15  C   UNL     1      -2.619   4.129 -24.217  0.00  0.00    +0.075 C 
ATOM     16  C   UNL     1      -3.470   4.336 -25.178  0.00  0.00    +0.017 C 
ATOM     17  C   UNL     1      -4.743   4.186 -24.963  0.00  0.00    +0.051 C 
ATOM     18  C   UNL     1      -5.166   3.827 -23.786  0.00  0.00    +0.133 C 
ATOM     19  N   UNL     1      -4.315   3.620 -22.826  0.00  0.00    +0.244 N 
ATOM     20  C   UNL     1      -4.737   3.262 -21.650  0.00  0.00    +0.133 C 
ATOM     21  C   UNL     1      -3.886   3.054 -20.688  0.00  0.00    +0.051 C 
ATOM     22  C   UNL     1      -2.613   3.205 -20.904  0.00  0.00    +0.011 C 
ATOM     23  C   UNL     1      -2.192   3.563 -22.080  0.00  0.00    +0.055 C 
ATOM     24  C   UNL     1      -5.588   3.469 -22.610  0.00  0.00    +0.192 C 
ATOM     25  C   UNL     1      -3.042   3.771 -23.041  0.00  0.00    +0.072 C 
ENDBRANCH  14  15
ENDBRANCH   1  14
TORSDOF 7
ENDMDL
MODEL 2
REMARK VINA RESULT:    -9.386      1.658      3.002
REMARK INTER + INTRA:         -14.044
REMARK INTER:                 -13.057
REMARK INTRA:                  -0.987
REMARK UNBOUND:                -0.816
REMARK  Name = CCCOc1ccc(C(=O)OC[C@@H]2CCC[N@+]3(C)CCCC[C@@H]23)cc1                 ZINC000253377313
REMARK  9 active torsions:
REMARK  status: ('A' for Active; 'I' for Inactive)
REMARK    1  A    between atoms: C_1  and  C_2
REMARK    2  A    between atoms: C_2  and  C_3
REMARK    3  A    between atoms: C_3  and  O_4
REMARK    4  A    between atoms: O_4  and  C_5
REMARK    5  A    between atoms: C_8  and  C_9
REMARK    6  A    between atoms: C_9  and  O_11
REMARK    7  A    between atoms: O_11  and  C_12
REMARK    8  A    between atoms: C_12  and  C_13
REMARK    9  A    between atoms: N_17  and  C_18
REMARK                            x       y       z     vdW  Elec       q    Type
REMARK                         _______ _______ _______ _____ _____    ______ ____
ROOT
ATOM      1  O   UNL     1      -0.020   2.762 -22.380  0.00  0.00    -0.461 OA
ENDROOT
BRANCH   1   2
ATOM      2  C   UNL     1       0.865   2.561 -23.311  0.00  0.00    +0.339 C 
ATOM      3  O   UNL     1       0.484   2.339 -24.534  0.00  0.00    -0.245 OA
BRANCH   2   7
ATOM      4  C   UNL     1       4.665   2.619 -22.432  0.00  0.00    +0.121 A 
ATOM      5  C   UNL     1       3.812   2.108 -21.594  0.00  0.00    +0.046 A 
ATOM      6  C   UNL     1       2.545   2.089 -21.888  0.00  0.00    +0.018 A 
ATOM      7  C   UNL     1       2.132   2.580 -23.018  0.00  0.00    +0.059 A 
ATOM      8  C   UNL     1       2.985   3.091 -23.855  0.00  0.00    +0.018 A 
ATOM      9  C   UNL     1       4.251   3.111 -23.562  0.00  0.00    +0.046 A 
BRANCH   4  10
ATOM     10  O   UNL     1       5.931   2.639 -22.139  0.00  0.00    -0.492 OA
BRANCH  10  11
ATOM     11  C   UNL     1       6.348   3.303 -21.102  0.00  0.00    +0.229 C 
BRANCH  11  13
ATOM     12  C   UNL     1       7.298   5.176 -20.289  0.00  0.00    +0.007 C 
ATOM     13  C   UNL     1       7.135   4.326 -21.259  0.00  0.00    +0.038 C 
ENDBRANCH  11  13
ENDBRANCH  10  11
ENDBRANCH   4  10
ENDBRANCH   2   7
ENDBRANCH   1   2
BRANCH   1  14
ATOM     14  C   UNL     1      -0.866   3.744 -22.491  0.00  0.00    +0.241 C 
BRANCH  14  15
ATOM     15  C   UNL     1      -2.120   3.557 -22.201  0.00  0.00    +0.075 C 
ATOM     16  C   UNL     1      -2.459   3.148 -21.014  0.00  0.00    +0.017 C 
ATOM     17  C   UNL     1      -3.712   2.961 -20.725  0.00  0.00    +0.051 C 
ATOM     18  C   UNL     1      -4.627   3.184 -21.623  0.00  0.00    +0.133 C 
ATOM     19  N   UNL     1      -4.288   3.593 -22.809  0.00  0.00    +0.244 N 
ATOM     20  C   UNL     1      -5.201   3.816 -23.706  0.00  0.00    +0.133 C 
ATOM     21  C   UNL     1      -4.862   4.225 -24.892  0.00  0.00    +0.051 C 
ATOM     22  C   UNL     1      -3.608   4.412 -25.182  0.00  0.00    +0.011 C 
ATOM     23  C   UNL     1      -2.695   4.189 -24.284  0.00  0.00    +0.055 C 
ATOM     24  C   UNL     1      -5.541   3.406 -22.519  0.00  0.00    +0.192 C 
ATOM     25  C   UNL     1      -3.034   3.780 -23.098  0.00  0.00    +0.072 C 
ENDBRANCH  14  15
ENDBRANCH   1  14
TORSDOF 7
ENDMDL
MODEL 3
REMARK VINA RESULT:    -9.378      1.355      2.535
REMARK INTER + INTRA:         -14.033
REMARK INTER:                 -12.853
REMARK INTRA:                  -1.180
REMARK UNBOUND:                -0.816
REMARK  Name = CCCOc1ccc(C(=O)OC[C@@H]2CCC[N@+]3(C)CCCC[C@@H]23)cc1                 ZINC000253377313
REMARK  9 active torsions:
REMARK  status: ('A' for Active; 'I' for Inactive)
REMARK    1  A    between atoms: C_1  and  C_2
REMARK    2  A    between atoms: C_2  and  C_3
REMARK    3  A    between atoms: C_3  and  O_4
REMARK    4  A    between atoms: O_4  and  C_5
REMARK    5  A    between atoms: C_8  and  C_9
REMARK    6  A    between atoms: C_9  and  O_11
REMARK    7  A    between atoms: O_11  and  C_12
REMARK    8  A    between atoms: C_12  and  C_13
REMARK    9  A    between atoms: N_17  and  C_18
REMARK                            x       y       z     vdW  Elec       q    Type
REMARK                         _______ _______ _______ _____ _____    ______ ____
ROOT
ATOM      1  O   UNL     1       0.038   4.321 -24.332  0.00  0.00    -0.461 OA
ENDROOT
BRANCH   1   2
ATOM      2  C   UNL     1       1.137   4.102 -24.990  0.00  0.00    +0.339 C 
ATOM      3  O   UNL     1       1.191   4.347 -26.266  0.00  0.00    -0.245 OA
BRANCH   2   7
ATOM      4  C   UNL     1       4.274   2.709 -23.136  0.00  0.00    +0.121 A 
ATOM      5  C   UNL     1       3.852   3.912 -22.885  0.00  0.00    +0.046 A 
ATOM      6  C   UNL     1       2.806   4.377 -23.504  0.00  0.00    +0.018 A 
ATOM      7  C   UNL     1       2.183   3.638 -24.372  0.00  0.00    +0.059 A 
ATOM      8  C   UNL     1       2.605   2.434 -24.623  0.00  0.00    +0.018 A 
ATOM      9  C   UNL     1       3.650   1.969 -24.005  0.00  0.00    +0.046 A 
BRANCH   4  10
ATOM     10  O   UNL     1       5.319   2.244 -22.518  0.00  0.00    -0.492 OA
BRANCH  10  11
ATOM     11  C   UNL     1       5.220   1.845 -21.285  0.00  0.00    +0.229 C 
BRANCH  11  13
ATOM     12  C   UNL     1       3.704   0.307 -20.649  0.00  0.00    +0.007 C 
ATOM     13  C   UNL     1       4.912   0.610 -21.025  0.00  0.00    +0.038 C 
ENDBRANCH  11  13
ENDBRANCH  10  11
ENDBRANCH   4  10
ENDBRANCH   2   7
ENDBRANCH   1   2
BRANCH   1  14
ATOM     14  C   UNL     1      -0.958   3.490 -24.436  0.00  0.00    +0.241 C 
BRANCH  14  15
ATOM     15  C   UNL     1      -1.698   3.230 -23.400  0.00  0.00    +0.075 C 
ATOM     16  C   UNL     1      -1.155   2.770 -22.311  0.00  0.00    +0.017 C 
ATOM     17  C   UNL     1      -1.896   2.511 -21.275  0.00  0.00    +0.051 C 
ATOM     18  C   UNL     1      -3.180   2.711 -21.327  0.00  0.00    +0.133 C 
ATOM     19  N   UNL     1      -3.722   3.171 -22.415  0.00  0.00    +0.244 N 
ATOM     20  C   UNL     1      -5.005   3.371 -22.467  0.00  0.00    +0.133 C 
ATOM     21  C   UNL     1      -5.548   3.831 -23.556  0.00  0.00    +0.051 C 
ATOM     22  C   UNL     1      -4.808   4.090 -24.592  0.00  0.00    +0.011 C 
ATOM     23  C   UNL     1      -3.524   3.890 -24.539  0.00  0.00    +0.055 C 
ATOM     24  C   UNL     1      -4.463   2.911 -21.379  0.00  0.00    +0.192 C 
ATOM     25  C   UNL     1      -2.982   3.430 -23.451  0.00  0.00    +0.072 C 
ENDBRANCH  14  15
ENDBRANCH   1  14
TORSDOF 7
ENDMDL
MODEL 4
REMARK VINA RESULT:    -9.349      1.876      2.902
REMARK INTER + INTRA:         -13.991
REMARK INTER:                 -12.862
REMARK INTRA:                  -1.129
REMARK UNBOUND:                -0.816
REMARK  Name = CCCOc1ccc(C(=O)OC[C@@H]2CCC[N@+]3(C)CCCC[C@@H]23)cc1                 ZINC000253377313
REMARK  9 active torsions:
REMARK  status: ('A' for Active; 'I' for Inactive)
REMARK    1  A    between atoms: C_1  and  C_2
REMARK    2  A    between atoms: C_2  and  C_3
REMARK    3  A    between atoms: C_3  and  O_4
REMARK    4  A    between atoms: O_4  and  C_5
REMARK    5  A    between atoms: C_8  and  C_9
REMARK    6  A    between atoms: C_9  and  O_11
REMARK    7  A    between atoms: O_11  and  C_12
REMARK    8  A    between atoms: C_12  and  C_13
REMARK    9  A    between atoms: N_17  and  C_18
REMARK                            x       y       z     vdW  Elec       q    Type
REMARK                         _______ _______ _______ _____ _____    ______ ____
ROOT
ATOM      1  O   UNL     1      -0.056   1.600 -22.548  0.00  0.00    -0.461 OA
ENDROOT
BRANCH   1   2
ATOM      2  C   UNL     1       0.995   1.588 -21.783  0.00  0.00    +0.339 C 
ATOM      3  O   UNL     1       0.891   1.227 -20.539  0.00  0.00    -0.245 OA
BRANCH   2   7
ATOM      4  C   UNL     1       4.464   2.642 -23.224  0.00  0.00    +0.121 A 
ATOM      5  C   UNL     1       4.353   1.549 -22.530  0.00  0.00    +0.046 A 
ATOM      6  C   UNL     1       3.197   1.197 -22.049  0.00  0.00    +0.018 A 
ATOM      7  C   UNL     1       2.152   1.940 -22.264  0.00  0.00    +0.059 A 
ATOM      8  C   UNL     1       2.262   3.033 -22.958  0.00  0.00    +0.018 A 
ATOM      9  C   UNL     1       3.417   3.384 -23.438  0.00  0.00    +0.046 A 
BRANCH   4  10
ATOM     10  O   UNL     1       5.619   2.993 -23.705  0.00  0.00    -0.492 OA
BRANCH  10  11
ATOM     11  C   UNL     1       6.661   3.031 -22.929  0.00  0.00    +0.229 C 
BRANCH  11  13
ATOM     12  C   UNL     1       7.014   4.113 -20.985  0.00  0.00    +0.007 C 
ATOM     13  C   UNL     1       6.952   4.122 -22.284  0.00  0.00    +0.038 C 
ENDBRANCH  11  13
ENDBRANCH  10  11
ENDBRANCH   4  10
ENDBRANCH   2   7
ENDBRANCH   1   2
BRANCH   1  14
ATOM     14  C   UNL     1      -1.124   2.240 -22.174  0.00  0.00    +0.241 C 
BRANCH  14  15
ATOM     15  C   UNL     1      -1.893   2.797 -23.063  0.00  0.00    +0.075 C 
ATOM     16  C   UNL     1      -1.400   3.165 -24.209  0.00  0.00    +0.017 C 
ATOM     17  C   UNL     1      -2.168   3.722 -25.097  0.00  0.00    +0.051 C 
ATOM     18  C   UNL     1      -3.429   3.911 -24.840  0.00  0.00    +0.133 C 
ATOM     19  N   UNL     1      -3.921   3.543 -23.694  0.00  0.00    +0.244 N 
ATOM     20  C   UNL     1      -5.180   3.732 -23.437  0.00  0.00    +0.133 C 
ATOM     21  C   UNL     1      -5.673   3.365 -22.291  0.00  0.00    +0.051 C 
ATOM     22  C   UNL     1      -4.904   2.808 -21.402  0.00  0.00    +0.011 C 
ATOM     23  C   UNL     1      -3.644   2.619 -21.660  0.00  0.00    +0.055 C 
ATOM     24  C   UNL     1      -4.689   4.100 -24.583  0.00  0.00    +0.192 C 
ATOM     25  C   UNL     1      -3.153   2.986 -22.806  0.00  0.00    +0.072 C 
ENDBRANCH  14  15
ENDBRANCH   1  14
TORSDOF 7
ENDMDL
MODEL 5
REMARK VINA RESULT:    -8.833      2.511      7.505
REMARK INTER + INTRA:         -13.264
REMARK INTER:                 -11.919
REMARK INTRA:                  -1.345
REMARK UNBOUND:                -0.816
REMARK  Name = CCCOc1ccc(C(=O)OC[C@@H]2CCC[N@+]3(C)CCCC[C@@H]23)cc1                 ZINC000253377313
REMARK  9 active torsions:
REMARK  status: ('A' for Active; 'I' for Inactive)
REMARK    1  A    between atoms: C_1  and  C_2
REMARK    2  A    between atoms: C_2  and  C_3
REMARK    3  A    between atoms: C_3  and  O_4
REMARK    4  A    between atoms: O_4  and  C_5
REMARK    5  A    between atoms: C_8  and  C_9
REMARK    6  A    between atoms: C_9  and  O_11
REMARK    7  A    between atoms: O_11  and  C_12
REMARK    8  A    between atoms: C_12  and  C_13
REMARK    9  A    between atoms: N_17  and  C_18
REMARK                            x       y       z     vdW  Elec       q    Type
REMARK                         _______ _______ _______ _____ _____    ______ ____
ROOT
ATOM      1  O   UNL     1       1.509   1.859 -24.487  0.00  0.00    -0.461 OA
ENDROOT
BRANCH   1   2
ATOM      2  C   UNL     1       0.976   3.034 -24.325  0.00  0.00    +0.339 C 
ATOM      3  O   UNL     1       1.481   4.066 -24.932  0.00  0.00    -0.245 OA
BRANCH   2   7
ATOM      4  C   UNL     1      -2.142   3.459 -22.019  0.00  0.00    +0.121 A 
ATOM      5  C   UNL     1      -1.493   2.333 -22.034  0.00  0.00    +0.046 A 
ATOM      6  C   UNL     1      -0.453   2.191 -22.803  0.00  0.00    +0.018 A 
ATOM      7  C   UNL     1      -0.063   3.176 -23.556  0.00  0.00    +0.059 A 
ATOM      8  C   UNL     1      -0.712   4.302 -23.542  0.00  0.00    +0.018 A 
ATOM      9  C   UNL     1      -1.751   4.444 -22.774  0.00  0.00    +0.046 A 
BRANCH   4  10
ATOM     10  O   UNL     1      -3.180   3.601 -21.251  0.00  0.00    -0.492 OA
BRANCH  10  11
ATOM     11  C   UNL     1      -4.072   2.659 -21.184  0.00  0.00    +0.229 C 
BRANCH  11  13
ATOM     12  C   UNL     1      -5.467   3.523 -22.726  0.00  0.00    +0.007 C 
ATOM     13  C   UNL     1      -5.280   2.875 -21.615  0.00  0.00    +0.038 C 
ENDBRANCH  11  13
ENDBRANCH  10  11
ENDBRANCH   4  10
ENDBRANCH   2   7
ENDBRANCH   1   2
BRANCH   1  14
ATOM     14  C   UNL     1       2.799   1.716 -24.415  0.00  0.00    +0.241 C 
BRANCH  14  15
ATOM     15  C   UNL     1       3.371   1.538 -23.261  0.00  0.00    +0.075 C 
ATOM     16  C   UNL     1       2.988   0.563 -22.491  0.00  0.00    +0.017 C 
ATOM     17  C   UNL     1       3.560   0.384 -21.337  0.00  0.00    +0.051 C 
ATOM     18  C   UNL     1       4.514   1.181 -20.953  0.00  0.00    +0.133 C 
ATOM     19  N   UNL     1       4.896   2.155 -21.724  0.00  0.00    +0.244 N 
ATOM     20  C   UNL     1       5.849   2.952 -21.342  0.00  0.00    +0.133 C 
ATOM     21  C   UNL     1       6.231   3.927 -22.113  0.00  0.00    +0.051 C 
ATOM     22  C   UNL     1       5.660   4.105 -23.267  0.00  0.00    +0.011 C 
ATOM     23  C   UNL     1       4.706   3.308 -23.649  0.00  0.00    +0.055 C 
ATOM     24  C   UNL     1       5.467   1.977 -20.570  0.00  0.00    +0.192 C 
ATOM     25  C   UNL     1       4.324   2.334 -22.878  0.00  0.00    +0.072 C 
ENDBRANCH  14  15
ENDBRANCH   1  14
TORSDOF 7
ENDMDL
MODEL 6
REMARK VINA RESULT:    -8.661      2.610      7.131
REMARK INTER + INTRA:         -13.021
REMARK INTER:                 -11.971
REMARK INTRA:                  -1.050
REMARK UNBOUND:                -0.816
REMARK  Name = CCCOc1ccc(C(=O)OC[C@@H]2CCC[N@+]3(C)CCCC[C@@H]23)cc1                 ZINC000253377313
REMARK  9 active torsions:
REMARK  status: ('A' for Active; 'I' for Inactive)
REMARK    1  A    between atoms: C_1  and  C_2
REMARK    2  A    between atoms: C_2  and  C_3
REMARK    3  A    between atoms: C_3  and  O_4
REMARK    4  A    between atoms: O_4  and  C_5
REMARK    5  A    between atoms: C_8  and  C_9
REMARK    6  A    between atoms: C_9  and  O_11
REMARK    7  A    between atoms: O_11  and  C_12
REMARK    8  A    between atoms: C_12  and  C_13
REMARK    9  A    between atoms: N_17  and  C_18
REMARK                            x       y       z     vdW  Elec       q    Type
REMARK                         _______ _______ _______ _____ _____    ______ ____
ROOT
ATOM      1  O   UNL     1       1.923   5.223 -24.071  0.00  0.00    -0.461 OA
ENDROOT
BRANCH   1   2
ATOM      2  C   UNL     1       1.040   4.503 -24.697  0.00  0.00    +0.339 C 
ATOM      3  O   UNL     1       1.194   4.238 -25.960  0.00  0.00    -0.245 OA
BRANCH   2   7
ATOM      4  C   UNL     1      -2.070   3.136 -22.781  0.00  0.00    +0.121 A 
ATOM      5  C   UNL     1      -1.428   2.367 -23.609  0.00  0.00    +0.046 A 
ATOM      6  C   UNL     1      -0.390   2.823 -24.248  0.00  0.00    +0.018 A 
ATOM      7  C   UNL     1       0.003   4.047 -24.058  0.00  0.00    +0.059 A 
ATOM      8  C   UNL     1      -0.640   4.816 -23.230  0.00  0.00    +0.018 A 
ATOM      9  C   UNL     1      -1.676   4.360 -22.592  0.00  0.00    +0.046 A 
BRANCH   4  10
ATOM     10  O   UNL     1      -3.107   2.680 -22.142  0.00  0.00    -0.492 OA
BRANCH  10  11
ATOM     11  C   UNL     1      -4.080   3.483 -21.828  0.00  0.00    +0.229 C 
BRANCH  11  13
ATOM     12  C   UNL     1      -5.527   3.808 -23.523  0.00  0.00    +0.007 C 
ATOM     13  C   UNL     1      -5.257   3.311 -22.351  0.00  0.00    +0.038 C 
ENDBRANCH  11  13
ENDBRANCH  10  11
ENDBRANCH   4  10
ENDBRANCH   2   7
ENDBRANCH   1   2
BRANCH   1  14
ATOM     14  C   UNL     1       2.394   4.824 -22.927  0.00  0.00    +0.241 C 
BRANCH  14  15
ATOM     15  C   UNL     1       3.486   4.120 -22.884  0.00  0.00    +0.075 C 
ATOM     16  C   UNL     1       4.612   4.644 -23.271  0.00  0.00    +0.017 C 
ATOM     17  C   UNL     1       5.705   3.941 -23.228  0.00  0.00    +0.051 C 
ATOM     18  C   UNL     1       5.671   2.714 -22.797  0.00  0.00    +0.133 C 
ATOM     19  N   UNL     1       4.546   2.191 -22.410  0.00  0.00    +0.244 N 
ATOM     20  C   UNL     1       4.513   0.966 -21.979  0.00  0.00    +0.133 C 
ATOM     21  C   UNL     1       3.387   0.442 -21.592  0.00  0.00    +0.051 C 
ATOM     22  C   UNL     1       2.295   1.146 -21.635  0.00  0.00    +0.011 C 
ATOM     23  C   UNL     1       2.329   2.372 -22.066  0.00  0.00    +0.055 C 
ATOM     24  C   UNL     1       5.639   1.488 -22.367  0.00  0.00    +0.192 C 
ATOM     25  C   UNL     1       3.454   2.894 -22.453  0.00  0.00    +0.072 C 
ENDBRANCH  14  15
ENDBRANCH   1  14
TORSDOF 7
ENDMDL
MODEL 7
REMARK VINA RESULT:    -8.055      3.694      8.010
REMARK INTER + INTRA:         -12.168
REMARK INTER:                 -11.351
REMARK INTRA:                  -0.816
REMARK UNBOUND:                -0.816
REMARK  Name = CCCOc1ccc(C(=O)OC[C@@H]2CCC[N@+]3(C)CCCC[C@@H]23)cc1                 ZINC000253377313
REMARK  9 active torsions:
REMARK  status: ('A' for Active; 'I' for Inactive)
REMARK    1  A    between atoms: C_1  and  C_2
REMARK    2  A    between atoms: C_2  and  C_3
REMARK    3  A    between atoms: C_3  and  O_4
REMARK    4  A    between atoms: O_4  and  C_5
REMARK    5  A    between atoms: C_8  and  C_9
REMARK    6  A    between atoms: C_9  and  O_11
REMARK    7  A    between atoms: O_11  and  C_12
REMARK    8  A    between atoms: C_12  and  C_13
REMARK    9  A    between atoms: N_17  and  C_18
REMARK                            x       y       z     vdW  Elec       q    Type
REMARK                         _______ _______ _______ _____ _____    ______ ____
ROOT
ATOM      1  O   UNL     1       2.089   3.481 -22.579  0.00  0.00    -0.461 OA
ENDROOT
BRANCH   1   2
ATOM      2  C   UNL     1       1.134   2.684 -22.956  0.00  0.00    +0.339 C 
ATOM      3  O   UNL     1       1.397   1.674 -23.731  0.00  0.00    -0.245 OA
BRANCH   2   7
ATOM      4  C   UNL     1      -2.524   3.324 -21.761  0.00  0.00    +0.121 A 
ATOM      5  C   UNL     1      -1.894   4.234 -22.444  0.00  0.00    +0.046 A 
ATOM      6  C   UNL     1      -0.675   4.020 -22.842  0.00  0.00    +0.018 A 
ATOM      7  C   UNL     1      -0.085   2.897 -22.558  0.00  0.00    +0.059 A 
ATOM      8  C   UNL     1      -0.715   1.988 -21.875  0.00  0.00    +0.018 A 
ATOM      9  C   UNL     1      -1.934   2.201 -21.477  0.00  0.00    +0.046 A 
BRANCH   4  10
ATOM     10  O   UNL     1      -3.742   3.537 -21.363  0.00  0.00    -0.492 OA
BRANCH  10  11
ATOM     11  C   UNL     1      -4.735   2.956 -21.968  0.00  0.00    +0.229 C 
BRANCH  11  13
ATOM     12  C   UNL     1      -5.252   3.842 -23.973  0.00  0.00    +0.007 C 
ATOM     13  C   UNL     1      -5.536   3.652 -22.718  0.00  0.00    +0.038 C 
ENDBRANCH  11  13
ENDBRANCH  10  11
ENDBRANCH   4  10
ENDBRANCH   2   7
ENDBRANCH   1   2
BRANCH   1  14
ATOM     14  C   UNL     1       2.823   4.082 -23.468  0.00  0.00    +0.241 C 
BRANCH  14  15
ATOM     15  C   UNL     1       4.092   4.261 -23.250  0.00  0.00    +0.075 C 
ATOM     16  C   UNL     1       4.939   3.313 -23.523  0.00  0.00    +0.017 C 
ATOM     17  C   UNL     1       6.208   3.492 -23.304  0.00  0.00    +0.051 C 
ATOM     18  C   UNL     1       6.630   4.620 -22.814  0.00  0.00    +0.133 C 
ATOM     19  N   UNL     1       5.783   5.568 -22.542  0.00  0.00    +0.244 N 
ATOM     20  C   UNL     1       6.204   6.695 -22.052  0.00  0.00    +0.133 C 
ATOM     21  C   UNL     1       5.358   7.644 -21.779  0.00  0.00    +0.051 C 
ATOM     22  C   UNL     1       4.089   7.464 -21.997  0.00  0.00    +0.011 C 
ATOM     23  C   UNL     1       3.668   6.336 -22.488  0.00  0.00    +0.055 C 
ATOM     24  C   UNL     1       7.052   5.748 -22.323  0.00  0.00    +0.192 C 
ATOM     25  C   UNL     1       4.514   5.388 -22.760  0.00  0.00    +0.072 C 
ENDBRANCH  14  15
ENDBRANCH   1  14
TORSDOF 7
ENDMDL
MODEL 8
REMARK VINA RESULT:    -8.028      2.385      4.132
REMARK INTER + INTRA:         -12.130
REMARK INTER:                 -10.978
REMARK INTRA:                  -1.153
REMARK UNBOUND:                -0.816
REMARK  Name = CCCOc1ccc(C(=O)OC[C@@H]2CCC[N@+]3(C)CCCC[C@@H]23)cc1                 ZINC000253377313
REMARK  9 active torsions:
REMARK  status: ('A' for Active; 'I' for Inactive)
REMARK    1  A    between atoms: C_1  and  C_2
REMARK    2  A    between atoms: C_2  and  C_3
REMARK    3  A    between atoms: C_3  and  O_4
REMARK    4  A    between atoms: O_4  and  C_5
REMARK    5  A    between atoms: C_8  and  C_9
REMARK    6  A    between atoms: C_9  and  O_11
REMARK    7  A    between atoms: O_11  and  C_12
REMARK    8  A    between atoms: C_12  and  C_13
REMARK    9  A    between atoms: N_17  and  C_18
REMARK                            x       y       z     vdW  Elec       q    Type
REMARK                         _______ _______ _______ _____ _____    ______ ____
ROOT
ATOM      1  O   UNL     1       1.827   1.906 -21.566  0.00  0.00    -0.461 OA
ENDROOT
BRANCH   1   2
ATOM      2  C   UNL     1       2.962   1.312 -21.788  0.00  0.00    +0.339 C 
ATOM      3  O   UNL     1       3.041   0.016 -21.729  0.00  0.00    -0.245 OA
BRANCH   2   7
ATOM      4  C   UNL     1       6.133   3.423 -22.631  0.00  0.00    +0.121 A 
ATOM      5  C   UNL     1       5.201   3.264 -23.524  0.00  0.00    +0.046 A 
ATOM      6  C   UNL     1       4.144   2.560 -23.243  0.00  0.00    +0.018 A 
ATOM      7  C   UNL     1       4.019   2.016 -22.069  0.00  0.00    +0.059 A 
ATOM      8  C   UNL     1       4.951   2.175 -21.176  0.00  0.00    +0.018 A 
ATOM      9  C   UNL     1       6.007   2.878 -21.457  0.00  0.00    +0.046 A 
BRANCH   4  10
ATOM     10  O   UNL     1       7.189   4.126 -22.912  0.00  0.00    -0.492 OA
BRANCH  10  11
ATOM     11  C   UNL     1       7.089   5.411 -23.078  0.00  0.00    +0.229 C 
BRANCH  11  13
ATOM     12  C   UNL     1       6.039   6.966 -21.833  0.00  0.00    +0.007 C 
ATOM     13  C   UNL     1       7.068   6.200 -22.046  0.00  0.00    +0.038 C 
ENDBRANCH  11  13
ENDBRANCH  10  11
ENDBRANCH   4  10
ENDBRANCH   2   7
ENDBRANCH   1   2
BRANCH   1  14
ATOM     14  C   UNL     1       0.744   1.472 -22.140  0.00  0.00    +0.241 C 
BRANCH  14  15
ATOM     15  C   UNL     1       0.089   2.242 -22.958  0.00  0.00    +0.075 C 
ATOM     16  C   UNL     1       0.670   2.696 -24.029  0.00  0.00    +0.017 C 
ATOM     17  C   UNL     1       0.014   3.465 -24.847  0.00  0.00    +0.051 C 
ATOM     18  C   UNL     1      -1.222   3.781 -24.593  0.00  0.00    +0.133 C 
ATOM     19  N   UNL     1      -1.801   3.327 -23.522  0.00  0.00    +0.244 N 
ATOM     20  C   UNL     1      -3.036   3.642 -23.268  0.00  0.00    +0.133 C 
ATOM     21  C   UNL     1      -3.617   3.188 -22.197  0.00  0.00    +0.051 C 
ATOM     22  C   UNL     1      -2.962   2.418 -21.379  0.00  0.00    +0.011 C 
ATOM     23  C   UNL     1      -1.726   2.103 -21.634  0.00  0.00    +0.055 C 
ATOM     24  C   UNL     1      -2.457   4.096 -24.340  0.00  0.00    +0.192 C 
ATOM     25  C   UNL     1      -1.146   2.557 -22.704  0.00  0.00    +0.072 C 
ENDBRANCH  14  15
ENDBRANCH   1  14
TORSDOF 7
ENDMDL
MODEL 9
REMARK VINA RESULT:    -7.841      2.339      3.875
REMARK INTER + INTRA:         -11.867
REMARK INTER:                 -11.417
REMARK INTRA:                  -0.450
REMARK UNBOUND:                -0.816
REMARK  Name = CCCOc1ccc(C(=O)OC[C@@H]2CCC[N@+]3(C)CCCC[C@@H]23)cc1                 ZINC000253377313
REMARK  9 active torsions:
REMARK  status: ('A' for Active; 'I' for Inactive)
REMARK    1  A    between atoms: C_1  and  C_2
REMARK    2  A    between atoms: C_2  and  C_3
REMARK    3  A    between atoms: C_3  and  O_4
REMARK    4  A    between atoms: O_4  and  C_5
REMARK    5  A    between atoms: C_8  and  C_9
REMARK    6  A    between atoms: C_9  and  O_11
REMARK    7  A    between atoms: O_11  and  C_12
REMARK    8  A    between atoms: C_12  and  C_13
REMARK    9  A    between atoms: N_17  and  C_18
REMARK                            x       y       z     vdW  Elec       q    Type
REMARK                         _______ _______ _______ _____ _____    ______ ____
ROOT
ATOM      1  O   UNL     1       0.905   1.269 -22.186  0.00  0.00    -0.461 OA
ENDROOT
BRANCH   1   2
ATOM      2  C   UNL     1       2.083   0.883 -22.578  0.00  0.00    +0.339 C 
ATOM      3  O   UNL     1       2.279  -0.352 -22.931  0.00  0.00    -0.245 OA
BRANCH   2   7
ATOM      4  C   UNL     1       5.031   3.436 -22.693  0.00  0.00    +0.121 A 
ATOM      5  C   UNL     1       4.927   2.607 -21.697  0.00  0.00    +0.046 A 
ATOM      6  C   UNL     1       3.945   1.756 -21.659  0.00  0.00    +0.018 A 
ATOM      7  C   UNL     1       3.066   1.734 -22.616  0.00  0.00    +0.059 A 
ATOM      8  C   UNL     1       3.169   2.563 -23.612  0.00  0.00    +0.018 A 
ATOM      9  C   UNL     1       4.151   3.414 -23.651  0.00  0.00    +0.046 A 
BRANCH   4  10
ATOM     10  O   UNL     1       6.012   4.287 -22.732  0.00  0.00    -0.492 OA
BRANCH  10  11
ATOM     11  C   UNL     1       7.029   4.071 -23.513  0.00  0.00    +0.229 C 
BRANCH  11  13
ATOM     12  C   UNL     1       8.093   6.054 -23.430  0.00  0.00    +0.007 C 
ATOM     13  C   UNL     1       8.123   4.755 -23.359  0.00  0.00    +0.038 C 
ENDBRANCH  11  13
ENDBRANCH  10  11
ENDBRANCH   4  10
ENDBRANCH   2   7
ENDBRANCH   1   2
BRANCH   1  14
ATOM     14  C   UNL     1       0.336   2.292 -22.752  0.00  0.00    +0.241 C 
BRANCH  14  15
ATOM     15  C   UNL     1      -0.919   2.545 -22.525  0.00  0.00    +0.075 C 
ATOM     16  C   UNL     1      -1.407   2.390 -21.329  0.00  0.00    +0.017 C 
ATOM     17  C   UNL     1      -2.662   2.643 -21.102  0.00  0.00    +0.051 C 
ATOM     18  C   UNL     1      -3.429   3.051 -22.070  0.00  0.00    +0.133 C 
ATOM     19  N   UNL     1      -2.941   3.205 -23.265  0.00  0.00    +0.244 N 
ATOM     20  C   UNL     1      -3.706   3.613 -24.232  0.00  0.00    +0.133 C 
ATOM     21  C   UNL     1      -3.218   3.768 -25.428  0.00  0.00    +0.051 C 
ATOM     22  C   UNL     1      -1.963   3.515 -25.655  0.00  0.00    +0.011 C 
ATOM     23  C   UNL     1      -1.198   3.107 -24.687  0.00  0.00    +0.055 C 
ATOM     24  C   UNL     1      -4.195   3.458 -23.038  0.00  0.00    +0.192 C 
ATOM     25  C   UNL     1      -1.686   2.952 -23.492  0.00  0.00    +0.072 C 
ENDBRANCH  14  15
ENDBRANCH   1  14
TORSDOF 7
ENDMDL
