MODEL 1
REMARK VINA RESULT:    -7.953      0.000      0.000
REMARK INTER + INTRA:         -15.630
REMARK INTER:                 -15.780
REMARK INTRA:                   0.150
REMARK UNBOUND:                -0.239
REMARK  Name = CCCCCCCCCCCC1=C(O)/C(=N\CCO)C=C(O)/C1=N/CCO                          ZINC000100393423
REMARK  19 active torsions:
REMARK  status: ('A' for Active; 'I' for Inactive)
REMARK    1  A    between atoms: C_1  and  C_2
REMARK    2  A    between atoms: C_2  and  C_3
REMARK    3  A    between atoms: C_3  and  C_4
REMARK    4  A    between atoms: C_4  and  C_5
REMARK    5  A    between atoms: C_5  and  C_6
REMARK    6  A    between atoms: C_6  and  C_7
REMARK    7  A    between atoms: C_7  and  C_8
REMARK    8  A    between atoms: C_8  and  C_9
REMARK    9  A    between atoms: C_9  and  C_10
REMARK   10  A    between atoms: C_10  and  C_11
REMARK   11  A    between atoms: C_11  and  C_12
REMARK   12  A    between atoms: C_13  and  O_14
REMARK   13  A    between atoms: N_16  and  C_17
REMARK   14  A    between atoms: C_17  and  C_18
REMARK   15  A    between atoms: C_18  and  O_19
REMARK   16  A    between atoms: C_21  and  O_22
REMARK   17  A    between atoms: N_24  and  C_25
REMARK   18  A    between atoms: C_25  and  C_26
REMARK   19  A    between atoms: C_26  and  O_27
REMARK                            x       y       z     vdW  Elec       q    Type
REMARK                         _______ _______ _______ _____ _____    ______ ____
ROOT
ATOM      1  C   UNL     1       0.935   2.318 -22.900  0.00  0.00    +0.025 C 
ATOM      2  C   UNL     1       1.921   1.686 -22.335  0.00  0.00    +0.147 C 
ATOM      3  C   UNL     1       2.922   1.269 -23.051  0.00  0.00    +0.104 C 
ATOM      4  C   UNL     1       2.937   1.483 -24.333  0.00  0.00    +0.078 C 
ATOM      5  C   UNL     1       1.952   2.115 -24.898  0.00  0.00    +0.144 C 
ATOM      6  N   UNL     1       3.907   0.637 -22.485  0.00  0.00    -0.278 NA
ATOM      7  C   UNL     1       0.951   2.532 -24.182  0.00  0.00    +0.107 C 
ATOM      8  N   UNL     1      -0.035   3.164 -24.747  0.00  0.00    -0.278 NA
ENDROOT
BRANCH   2   9
ATOM      9  O   UNL     1       1.905   1.471 -21.053  0.00  0.00    -0.504 OA
ATOM     10  H   UNL     1       2.278   0.685 -20.705  0.00  0.00    +0.292 HD
ENDBRANCH   2   9
BRANCH   5  11
ATOM     11  O   UNL     1       1.968   2.330 -26.181  0.00  0.00    -0.505 OA
ATOM     12  H   UNL     1       2.514   3.003 -26.537  0.00  0.00    +0.292 HD
ENDBRANCH   5  11
BRANCH   6  13
ATOM     13  C   UNL     1       3.892   0.422 -21.204  0.00  0.00    +0.170 C 
BRANCH  13  14
ATOM     14  C   UNL     1       4.995   0.134 -20.579  0.00  0.00    +0.179 C 
BRANCH  14  15
ATOM     15  O   UNL     1       5.569   1.027 -19.829  0.00  0.00    -0.393 OA
ATOM     16  H   UNL     1       4.893   1.528 -19.346  0.00  0.00    +0.209 HD
ENDBRANCH  14  15
ENDBRANCH  13  14
ENDBRANCH   6  13
BRANCH   8  17
ATOM     17  C   UNL     1      -1.036   3.581 -24.031  0.00  0.00    +0.170 C 
BRANCH  17  18
ATOM     18  C   UNL     1      -1.305   4.851 -23.969  0.00  0.00    +0.179 C 
BRANCH  18  19
ATOM     19  O   UNL     1      -0.391   5.692 -23.582  0.00  0.00    -0.393 OA
ATOM     20  H   UNL     1      -0.565   6.561 -23.975  0.00  0.00    +0.209 HD
ENDBRANCH  18  19
ENDBRANCH  17  18
ENDBRANCH   8  17
BRANCH   1  21
ATOM     21  C   UNL     1      -0.066   2.735 -22.183  0.00  0.00    +0.041 C 
BRANCH  21  22
ATOM     22  C   UNL     1      -0.686   1.912 -21.390  0.00  0.00    +0.005 C 
BRANCH  22  23
ATOM     23  C   UNL     1      -1.959   2.053 -21.174  0.00  0.00    +0.000 C 
BRANCH  23  24
ATOM     24  C   UNL     1      -2.419   3.174 -20.705  0.00  0.00    +0.000 C 
BRANCH  24  25
ATOM     25  C   UNL     1      -3.689   3.304 -20.459  0.00  0.00    +0.000 C 
BRANCH  25  26
ATOM     26  C   UNL     1      -4.561   2.681 -21.196  0.00  0.00    +0.000 C 
BRANCH  26  27
ATOM     27  C   UNL     1      -5.238   3.334 -22.092  0.00  0.00    -0.000 C 
BRANCH  27  28
ATOM     28  C   UNL     1      -4.646   3.770 -23.165  0.00  0.00    -0.000 C 
BRANCH  28  29
ATOM     29  C   UNL     1      -5.285   3.792 -24.297  0.00  0.00    -0.000 C 
BRANCH  29  31
ATOM     30  C   UNL     1      -4.155   3.138 -26.132  0.00  0.00    +0.004 C 
ATOM     31  C   UNL     1      -4.653   4.086 -25.394  0.00  0.00    -0.003 C 
ENDBRANCH  29  31
ENDBRANCH  28  29
ENDBRANCH  27  28
ENDBRANCH  26  27
ENDBRANCH  25  26
ENDBRANCH  24  25
ENDBRANCH  23  24
ENDBRANCH  22  23
ENDBRANCH  21  22
ENDBRANCH   1  21
TORSDOF 18
ENDMDL
MODEL 2
REMARK VINA RESULT:    -7.902      2.302      5.760
REMARK INTER + INTRA:         -15.532
REMARK INTER:                 -14.158
REMARK INTRA:                  -1.374
REMARK UNBOUND:                -0.239
REMARK  Name = CCCCCCCCCCCC1=C(O)/C(=N\CCO)C=C(O)/C1=N/CCO                          ZINC000100393423
REMARK  19 active torsions:
REMARK  status: ('A' for Active; 'I' for Inactive)
REMARK    1  A    between atoms: C_1  and  C_2
REMARK    2  A    between atoms: C_2  and  C_3
REMARK    3  A    between atoms: C_3  and  C_4
REMARK    4  A    between atoms: C_4  and  C_5
REMARK    5  A    between atoms: C_5  and  C_6
REMARK    6  A    between atoms: C_6  and  C_7
REMARK    7  A    between atoms: C_7  and  C_8
REMARK    8  A    between atoms: C_8  and  C_9
REMARK    9  A    between atoms: C_9  and  C_10
REMARK   10  A    between atoms: C_10  and  C_11
REMARK   11  A    between atoms: C_11  and  C_12
REMARK   12  A    between atoms: C_13  and  O_14
REMARK   13  A    between atoms: N_16  and  C_17
REMARK   14  A    between atoms: C_17  and  C_18
REMARK   15  A    between atoms: C_18  and  O_19
REMARK   16  A    between atoms: C_21  and  O_22
REMARK   17  A    between atoms: N_24  and  C_25
REMARK   18  A    between atoms: C_25  and  C_26
REMARK   19  A    between atoms: C_26  and  O_27
REMARK                            x       y       z     vdW  Elec       q    Type
REMARK                         _______ _______ _______ _____ _____    ______ ____
ROOT
ATOM      1  C   UNL     1       2.910   3.317 -24.051  0.00  0.00    +0.025 C 
ATOM      2  C   UNL     1       1.651   3.321 -24.375  0.00  0.00    +0.147 C 
ATOM      3  C   UNL     1       0.903   4.338 -24.066  0.00  0.00    +0.104 C 
ATOM      4  C   UNL     1       1.414   5.352 -23.434  0.00  0.00    +0.078 C 
ATOM      5  C   UNL     1       2.673   5.349 -23.110  0.00  0.00    +0.144 C 
ATOM      6  N   UNL     1      -0.356   4.341 -24.390  0.00  0.00    -0.278 NA
ATOM      7  C   UNL     1       3.421   4.331 -23.419  0.00  0.00    +0.107 C 
ATOM      8  N   UNL     1       4.680   4.328 -23.095  0.00  0.00    -0.278 NA
ENDROOT
BRANCH   2   9
ATOM      9  O   UNL     1       1.139   2.306 -25.007  0.00  0.00    -0.504 OA
ATOM     10  H   UNL     1       1.581   1.947 -25.751  0.00  0.00    +0.292 HD
ENDBRANCH   2   9
BRANCH   5  11
ATOM     11  O   UNL     1       3.185   6.363 -22.478  0.00  0.00    -0.505 OA
ATOM     12  H   UNL     1       2.889   6.575 -21.614  0.00  0.00    +0.292 HD
ENDBRANCH   5  11
BRANCH   6  13
ATOM     13  C   UNL     1      -0.867   3.327 -25.022  0.00  0.00    +0.170 C 
BRANCH  13  14
ATOM     14  C   UNL     1      -2.148   3.276 -25.241  0.00  0.00    +0.179 C 
BRANCH  14  15
ATOM     15  O   UNL     1      -2.799   2.171 -25.030  0.00  0.00    -0.393 OA
ATOM     16  H   UNL     1      -2.476   1.484 -25.635  0.00  0.00    +0.209 HD
ENDBRANCH  14  15
ENDBRANCH  13  14
ENDBRANCH   6  13
BRANCH   8  17
ATOM     17  C   UNL     1       5.428   3.310 -23.403  0.00  0.00    +0.170 C 
BRANCH  17  18
ATOM     18  C   UNL     1       6.451   3.007 -22.661  0.00  0.00    +0.179 C 
BRANCH  18  19
ATOM     19  O   UNL     1       7.112   1.910 -22.883  0.00  0.00    -0.393 OA
ATOM     20  H   UNL     1       7.355   1.862 -23.820  0.00  0.00    +0.209 HD
ENDBRANCH  18  19
ENDBRANCH  17  18
ENDBRANCH   8  17
BRANCH   1  21
ATOM     21  C   UNL     1       3.657   2.299 -24.359  0.00  0.00    +0.041 C 
BRANCH  21  22
ATOM     22  C   UNL     1       3.275   1.095 -24.053  0.00  0.00    +0.005 C 
BRANCH  22  23
ATOM     23  C   UNL     1       3.471   0.637 -22.853  0.00  0.00    +0.000 C 
BRANCH  23  24
ATOM     24  C   UNL     1       2.463   0.469 -22.049  0.00  0.00    +0.000 C 
BRANCH  24  25
ATOM     25  C   UNL     1       2.135   1.410 -21.212  0.00  0.00    +0.000 C 
BRANCH  25  26
ATOM     26  C   UNL     1       0.882   1.683 -21.001  0.00  0.00    +0.000 C 
BRANCH  26  27
ATOM     27  C   UNL     1      -0.030   1.199 -21.789  0.00  0.00    -0.000 C 
BRANCH  27  28
ATOM     28  C   UNL     1      -1.207   1.751 -21.838  0.00  0.00    -0.000 C 
BRANCH  28  29
ATOM     29  C   UNL     1      -1.399   2.920 -21.304  0.00  0.00    -0.000 C 
BRANCH  29  31
ATOM     30  C   UNL     1      -3.168   3.755 -20.187  0.00  0.00    +0.004 C 
ATOM     31  C   UNL     1      -2.586   3.449 -21.309  0.00  0.00    -0.003 C 
ENDBRANCH  29  31
ENDBRANCH  28  29
ENDBRANCH  27  28
ENDBRANCH  26  27
ENDBRANCH  25  26
ENDBRANCH  24  25
ENDBRANCH  23  24
ENDBRANCH  22  23
ENDBRANCH  21  22
ENDBRANCH   1  21
TORSDOF 18
ENDMDL
MODEL 3
REMARK VINA RESULT:    -7.547      1.440      1.678
REMARK INTER + INTRA:         -14.845
REMARK INTER:                 -14.965
REMARK INTRA:                   0.120
REMARK UNBOUND:                -0.239
REMARK  Name = CCCCCCCCCCCC1=C(O)/C(=N\CCO)C=C(O)/C1=N/CCO                          ZINC000100393423
REMARK  19 active torsions:
REMARK  status: ('A' for Active; 'I' for Inactive)
REMARK    1  A    between atoms: C_1  and  C_2
REMARK    2  A    between atoms: C_2  and  C_3
REMARK    3  A    between atoms: C_3  and  C_4
REMARK    4  A    between atoms: C_4  and  C_5
REMARK    5  A    between atoms: C_5  and  C_6
REMARK    6  A    between atoms: C_6  and  C_7
REMARK    7  A    between atoms: C_7  and  C_8
REMARK    8  A    between atoms: C_8  and  C_9
REMARK    9  A    between atoms: C_9  and  C_10
REMARK   10  A    between atoms: C_10  and  C_11
REMARK   11  A    between atoms: C_11  and  C_12
REMARK   12  A    between atoms: C_13  and  O_14
REMARK   13  A    between atoms: N_16  and  C_17
REMARK   14  A    between atoms: C_17  and  C_18
REMARK   15  A    between atoms: C_18  and  O_19
REMARK   16  A    between atoms: C_21  and  O_22
REMARK   17  A    between atoms: N_24  and  C_25
REMARK   18  A    between atoms: C_25  and  C_26
REMARK   19  A    between atoms: C_26  and  O_27
REMARK                            x       y       z     vdW  Elec       q    Type
REMARK                         _______ _______ _______ _____ _____    ______ ____
ROOT
ATOM      1  C   UNL     1       1.094   2.820 -23.012  0.00  0.00    +0.025 C 
ATOM      2  C   UNL     1       2.125   2.200 -22.519  0.00  0.00    +0.147 C 
ATOM      3  C   UNL     1       3.266   2.814 -22.419  0.00  0.00    +0.104 C 
ATOM      4  C   UNL     1       3.376   4.048 -22.812  0.00  0.00    +0.078 C 
ATOM      5  C   UNL     1       2.345   4.668 -23.304  0.00  0.00    +0.144 C 
ATOM      6  N   UNL     1       4.297   2.194 -21.926  0.00  0.00    -0.278 NA
ATOM      7  C   UNL     1       1.204   4.054 -23.404  0.00  0.00    +0.107 C 
ATOM      8  N   UNL     1       0.173   4.674 -23.897  0.00  0.00    -0.278 NA
ENDROOT
BRANCH   2   9
ATOM      9  O   UNL     1       2.015   0.966 -22.126  0.00  0.00    -0.504 OA
ATOM     10  H   UNL     1       2.784   0.453 -21.971  0.00  0.00    +0.292 HD
ENDBRANCH   2   9
BRANCH   5  11
ATOM     11  O   UNL     1       2.456   5.903 -23.697  0.00  0.00    -0.505 OA
ATOM     12  H   UNL     1       3.087   6.133 -24.350  0.00  0.00    +0.292 HD
ENDBRANCH   5  11
BRANCH   6  13
ATOM     13  C   UNL     1       4.187   0.960 -21.534  0.00  0.00    +0.170 C 
BRANCH  13  14
ATOM     14  C   UNL     1       5.050   0.464 -20.697  0.00  0.00    +0.179 C 
BRANCH  14  15
ATOM     15  O   UNL     1       5.627   1.236 -19.825  0.00  0.00    -0.393 OA
ATOM     16  H   UNL     1       4.979   1.866 -19.471  0.00  0.00    +0.209 HD
ENDBRANCH  14  15
ENDBRANCH  13  14
ENDBRANCH   6  13
BRANCH   8  17
ATOM     17  C   UNL     1      -0.968   4.060 -23.997  0.00  0.00    +0.170 C 
BRANCH  17  18
ATOM     18  C   UNL     1      -1.598   4.041 -25.134  0.00  0.00    +0.179 C 
BRANCH  18  19
ATOM     19  O   UNL     1      -1.144   3.321 -26.117  0.00  0.00    -0.393 OA
ATOM     20  H   UNL     1      -0.662   2.558 -25.763  0.00  0.00    +0.209 HD
ENDBRANCH  18  19
ENDBRANCH  17  18
ENDBRANCH   8  17
BRANCH   1  21
ATOM     21  C   UNL     1      -0.048   2.205 -23.112  0.00  0.00    +0.041 C 
BRANCH  21  22
ATOM     22  C   UNL     1      -0.544   1.584 -22.083  0.00  0.00    +0.005 C 
BRANCH  22  23
ATOM     23  C   UNL     1      -1.716   1.913 -21.629  0.00  0.00    +0.000 C 
BRANCH  23  24
ATOM     24  C   UNL     1      -1.868   3.022 -20.967  0.00  0.00    +0.000 C 
BRANCH  24  25
ATOM     25  C   UNL     1      -2.989   3.262 -20.352  0.00  0.00    +0.000 C 
BRANCH  25  26
ATOM     26  C   UNL     1      -3.961   3.854 -20.981  0.00  0.00    +0.000 C 
BRANCH  26  27
ATOM     27  C   UNL     1      -4.976   3.162 -21.405  0.00  0.00    -0.000 C 
BRANCH  27  28
ATOM     28  C   UNL     1      -5.486   3.406 -22.576  0.00  0.00    -0.000 C 
BRANCH  28  29
ATOM     29  C   UNL     1      -4.713   3.749 -23.563  0.00  0.00    -0.000 C 
BRANCH  29  31
ATOM     30  C   UNL     1      -5.025   3.303 -25.748  0.00  0.00    +0.004 C 
ATOM     31  C   UNL     1      -5.230   4.064 -24.714  0.00  0.00    -0.003 C 
ENDBRANCH  29  31
ENDBRANCH  28  29
ENDBRANCH  27  28
ENDBRANCH  26  27
ENDBRANCH  25  26
ENDBRANCH  24  25
ENDBRANCH  23  24
ENDBRANCH  22  23
ENDBRANCH  21  22
ENDBRANCH   1  21
TORSDOF 18
ENDMDL
MODEL 4
REMARK VINA RESULT:    -7.384      2.511      3.992
REMARK INTER + INTRA:         -14.529
REMARK INTER:                 -13.970
REMARK INTRA:                  -0.559
REMARK UNBOUND:                -0.239
REMARK  Name = CCCCCCCCCCCC1=C(O)/C(=N\CCO)C=C(O)/C1=N/CCO                          ZINC000100393423
REMARK  19 active torsions:
REMARK  status: ('A' for Active; 'I' for Inactive)
REMARK    1  A    between atoms: C_1  and  C_2
REMARK    2  A    between atoms: C_2  and  C_3
REMARK    3  A    between atoms: C_3  and  C_4
REMARK    4  A    between atoms: C_4  and  C_5
REMARK    5  A    between atoms: C_5  and  C_6
REMARK    6  A    between atoms: C_6  and  C_7
REMARK    7  A    between atoms: C_7  and  C_8
REMARK    8  A    between atoms: C_8  and  C_9
REMARK    9  A    between atoms: C_9  and  C_10
REMARK   10  A    between atoms: C_10  and  C_11
REMARK   11  A    between atoms: C_11  and  C_12
REMARK   12  A    between atoms: C_13  and  O_14
REMARK   13  A    between atoms: N_16  and  C_17
REMARK   14  A    between atoms: C_17  and  C_18
REMARK   15  A    between atoms: C_18  and  O_19
REMARK   16  A    between atoms: C_21  and  O_22
REMARK   17  A    between atoms: N_24  and  C_25
REMARK   18  A    between atoms: C_25  and  C_26
REMARK   19  A    between atoms: C_26  and  O_27
REMARK                            x       y       z     vdW  Elec       q    Type
REMARK                         _______ _______ _______ _____ _____    ______ ____
ROOT
ATOM      1  C   UNL     1       3.009   2.612 -22.510  0.00  0.00    +0.025 C 
ATOM      2  C   UNL     1       4.218   3.071 -22.643  0.00  0.00    +0.147 C 
ATOM      3  C   UNL     1       5.185   2.568 -21.936  0.00  0.00    +0.104 C 
ATOM      4  C   UNL     1       4.944   1.605 -21.097  0.00  0.00    +0.078 C 
ATOM      5  C   UNL     1       3.735   1.146 -20.965  0.00  0.00    +0.144 C 
ATOM      6  N   UNL     1       6.394   3.027 -22.069  0.00  0.00    -0.278 NA
ATOM      7  C   UNL     1       2.767   1.649 -21.671  0.00  0.00    +0.107 C 
ATOM      8  N   UNL     1       1.558   1.190 -21.539  0.00  0.00    -0.278 NA
ENDROOT
BRANCH   2   9
ATOM      9  O   UNL     1       4.459   4.034 -23.482  0.00  0.00    -0.504 OA
ATOM     10  H   UNL     1       4.930   4.794 -23.200  0.00  0.00    +0.292 HD
ENDBRANCH   2   9
BRANCH   5  11
ATOM     11  O   UNL     1       3.493   0.182 -20.125  0.00  0.00    -0.505 OA
ATOM     12  H   UNL     1       2.870  -0.483 -20.342  0.00  0.00    +0.292 HD
ENDBRANCH   5  11
BRANCH   6  13
ATOM     13  C   UNL     1       6.636   3.990 -22.908  0.00  0.00    +0.170 C 
BRANCH  13  14
ATOM     14  C   UNL     1       7.564   3.851 -23.807  0.00  0.00    +0.179 C 
BRANCH  14  15
ATOM     15  O   UNL     1       7.330   3.159 -24.882  0.00  0.00    -0.393 OA
ATOM     16  H   UNL     1       7.301   2.215 -24.659  0.00  0.00    +0.209 HD
ENDBRANCH  14  15
ENDBRANCH  13  14
ENDBRANCH   6  13
BRANCH   8  17
ATOM     17  C   UNL     1       0.591   1.694 -22.246  0.00  0.00    +0.170 C 
BRANCH  17  18
ATOM     18  C   UNL     1      -0.645   1.458 -21.918  0.00  0.00    +0.179 C 
BRANCH  18  19
ATOM     19  O   UNL     1      -1.297   2.312 -21.185  0.00  0.00    -0.393 OA
ATOM     20  H   UNL     1      -0.702   2.686 -20.517  0.00  0.00    +0.209 HD
ENDBRANCH  18  19
ENDBRANCH  17  18
ENDBRANCH   8  17
BRANCH   1  21
ATOM     21  C   UNL     1       2.041   3.117 -23.218  0.00  0.00    +0.041 C 
BRANCH  21  22
ATOM     22  C   UNL     1       1.889   4.406 -23.286  0.00  0.00    +0.005 C 
BRANCH  22  23
ATOM     23  C   UNL     1       0.806   4.906 -23.802  0.00  0.00    +0.000 C 
BRANCH  23  24
ATOM     24  C   UNL     1      -0.253   5.062 -23.064  0.00  0.00    +0.000 C 
BRANCH  24  25
ATOM     25  C   UNL     1      -1.434   5.037 -23.609  0.00  0.00    +0.000 C 
BRANCH  25  26
ATOM     26  C   UNL     1      -1.766   4.057 -24.395  0.00  0.00    +0.000 C 
BRANCH  26  27
ATOM     27  C   UNL     1      -3.015   3.855 -24.690  0.00  0.00    -0.000 C 
BRANCH  27  28
ATOM     28  C   UNL     1      -3.791   3.238 -23.848  0.00  0.00    -0.000 C 
BRANCH  28  29
ATOM     29  C   UNL     1      -4.899   3.793 -23.458  0.00  0.00    -0.000 C 
BRANCH  29  31
ATOM     30  C   UNL     1      -4.788   2.829 -21.426  0.00  0.00    +0.004 C 
ATOM     31  C   UNL     1      -5.486   3.380 -22.374  0.00  0.00    -0.003 C 
ENDBRANCH  29  31
ENDBRANCH  28  29
ENDBRANCH  27  28
ENDBRANCH  26  27
ENDBRANCH  25  26
ENDBRANCH  24  25
ENDBRANCH  23  24
ENDBRANCH  22  23
ENDBRANCH  21  22
ENDBRANCH   1  21
TORSDOF 18
ENDMDL
MODEL 5
REMARK VINA RESULT:    -7.316      3.336      4.905
REMARK INTER + INTRA:         -14.398
REMARK INTER:                 -14.128
REMARK INTRA:                  -0.270
REMARK UNBOUND:                -0.239
REMARK  Name = CCCCCCCCCCCC1=C(O)/C(=N\CCO)C=C(O)/C1=N/CCO                          ZINC000100393423
REMARK  19 active torsions:
REMARK  status: ('A' for Active; 'I' for Inactive)
REMARK    1  A    between atoms: C_1  and  C_2
REMARK    2  A    between atoms: C_2  and  C_3
REMARK    3  A    between atoms: C_3  and  C_4
REMARK    4  A    between atoms: C_4  and  C_5
REMARK    5  A    between atoms: C_5  and  C_6
REMARK    6  A    between atoms: C_6  and  C_7
REMARK    7  A    between atoms: C_7  and  C_8
REMARK    8  A    between atoms: C_8  and  C_9
REMARK    9  A    between atoms: C_9  and  C_10
REMARK   10  A    between atoms: C_10  and  C_11
REMARK   11  A    between atoms: C_11  and  C_12
REMARK   12  A    between atoms: C_13  and  O_14
REMARK   13  A    between atoms: N_16  and  C_17
REMARK   14  A    between atoms: C_17  and  C_18
REMARK   15  A    between atoms: C_18  and  O_19
REMARK   16  A    between atoms: C_21  and  O_22
REMARK   17  A    between atoms: N_24  and  C_25
REMARK   18  A    between atoms: C_25  and  C_26
REMARK   19  A    between atoms: C_26  and  O_27
REMARK                            x       y       z     vdW  Elec       q    Type
REMARK                         _______ _______ _______ _____ _____    ______ ____
ROOT
ATOM      1  C   UNL     1       3.205   4.323 -23.485  0.00  0.00    +0.025 C 
ATOM      2  C   UNL     1       3.514   5.462 -22.940  0.00  0.00    +0.147 C 
ATOM      3  C   UNL     1       4.731   5.681 -22.538  0.00  0.00    +0.104 C 
ATOM      4  C   UNL     1       5.638   4.762 -22.683  0.00  0.00    +0.078 C 
ATOM      5  C   UNL     1       5.329   3.623 -23.228  0.00  0.00    +0.144 C 
ATOM      6  N   UNL     1       5.040   6.820 -21.993  0.00  0.00    -0.278 NA
ATOM      7  C   UNL     1       4.113   3.403 -23.629  0.00  0.00    +0.107 C 
ATOM      8  N   UNL     1       3.803   2.265 -24.175  0.00  0.00    -0.278 NA
ENDROOT
BRANCH   2   9
ATOM      9  O   UNL     1       2.607   6.381 -22.796  0.00  0.00    -0.504 OA
ATOM     10  H   UNL     1       2.860   7.265 -22.617  0.00  0.00    +0.292 HD
ENDBRANCH   2   9
BRANCH   5  11
ATOM     11  O   UNL     1       6.237   2.703 -23.372  0.00  0.00    -0.505 OA
ATOM     12  H   UNL     1       6.067   1.827 -23.087  0.00  0.00    +0.292 HD
ENDBRANCH   5  11
BRANCH   6  13
ATOM     13  C   UNL     1       4.132   7.739 -21.849  0.00  0.00    +0.170 C 
BRANCH  13  14
ATOM     14  C   UNL     1       4.383   8.963 -22.210  0.00  0.00    +0.179 C 
BRANCH  14  15
ATOM     15  O   UNL     1       3.559   9.591 -22.995  0.00  0.00    -0.393 OA
ATOM     16  H   UNL     1       2.840   9.975 -22.468  0.00  0.00    +0.209 HD
ENDBRANCH  14  15
ENDBRANCH  13  14
ENDBRANCH   6  13
BRANCH   8  17
ATOM     17  C   UNL     1       2.587   2.045 -24.576  0.00  0.00    +0.170 C 
BRANCH  17  18
ATOM     18  C   UNL     1       2.373   1.352 -25.655  0.00  0.00    +0.179 C 
BRANCH  18  19
ATOM     19  O   UNL     1       1.755   1.893 -26.663  0.00  0.00    -0.393 OA
ATOM     20  H   UNL     1       0.957   2.344 -26.349  0.00  0.00    +0.209 HD
ENDBRANCH  18  19
ENDBRANCH  17  18
ENDBRANCH   8  17
BRANCH   1  21
ATOM     21  C   UNL     1       1.988   4.104 -23.887  0.00  0.00    +0.041 C 
BRANCH  21  22
ATOM     22  C   UNL     1       0.987   4.630 -23.246  0.00  0.00    +0.005 C 
BRANCH  22  23
ATOM     23  C   UNL     1      -0.135   3.981 -23.146  0.00  0.00    +0.000 C 
BRANCH  23  24
ATOM     24  C   UNL     1      -1.254   4.570 -23.446  0.00  0.00    +0.000 C 
BRANCH  24  25
ATOM     25  C   UNL     1      -1.947   4.166 -24.470  0.00  0.00    +0.000 C 
BRANCH  25  26
ATOM     26  C   UNL     1      -3.228   4.385 -24.515  0.00  0.00    +0.000 C 
BRANCH  26  27
ATOM     27  C   UNL     1      -4.058   3.464 -24.125  0.00  0.00    -0.000 C 
BRANCH  27  28
ATOM     28  C   UNL     1      -4.819   3.670 -23.090  0.00  0.00    -0.000 C 
BRANCH  28  29
ATOM     29  C   UNL     1      -4.535   3.107 -21.954  0.00  0.00    -0.000 C 
BRANCH  29  31
ATOM     30  C   UNL     1      -2.995   3.461 -20.349  0.00  0.00    +0.004 C 
ATOM     31  C   UNL     1      -4.079   3.824 -20.970  0.00  0.00    -0.003 C 
ENDBRANCH  29  31
ENDBRANCH  28  29
ENDBRANCH  27  28
ENDBRANCH  26  27
ENDBRANCH  25  26
ENDBRANCH  24  25
ENDBRANCH  23  24
ENDBRANCH  22  23
ENDBRANCH  21  22
ENDBRANCH   1  21
TORSDOF 18
ENDMDL
MODEL 6
REMARK VINA RESULT:    -7.230      1.769      4.851
REMARK INTER + INTRA:         -14.232
REMARK INTER:                 -14.397
REMARK INTRA:                   0.165
REMARK UNBOUND:                -0.239
REMARK  Name = CCCCCCCCCCCC1=C(O)/C(=N\CCO)C=C(O)/C1=N/CCO                          ZINC000100393423
REMARK  19 active torsions:
REMARK  status: ('A' for Active; 'I' for Inactive)
REMARK    1  A    between atoms: C_1  and  C_2
REMARK    2  A    between atoms: C_2  and  C_3
REMARK    3  A    between atoms: C_3  and  C_4
REMARK    4  A    between atoms: C_4  and  C_5
REMARK    5  A    between atoms: C_5  and  C_6
REMARK    6  A    between atoms: C_6  and  C_7
REMARK    7  A    between atoms: C_7  and  C_8
REMARK    8  A    between atoms: C_8  and  C_9
REMARK    9  A    between atoms: C_9  and  C_10
REMARK   10  A    between atoms: C_10  and  C_11
REMARK   11  A    between atoms: C_11  and  C_12
REMARK   12  A    between atoms: C_13  and  O_14
REMARK   13  A    between atoms: N_16  and  C_17
REMARK   14  A    between atoms: C_17  and  C_18
REMARK   15  A    between atoms: C_18  and  O_19
REMARK   16  A    between atoms: C_21  and  O_22
REMARK   17  A    between atoms: N_24  and  C_25
REMARK   18  A    between atoms: C_25  and  C_26
REMARK   19  A    between atoms: C_26  and  O_27
REMARK                            x       y       z     vdW  Elec       q    Type
REMARK                         _______ _______ _______ _____ _____    ______ ____
ROOT
ATOM      1  C   UNL     1       2.433   2.572 -23.107  0.00  0.00    +0.025 C 
ATOM      2  C   UNL     1       1.460   2.881 -23.912  0.00  0.00    +0.147 C 
ATOM      3  C   UNL     1       1.328   4.103 -24.334  0.00  0.00    +0.104 C 
ATOM      4  C   UNL     1       2.169   5.017 -23.950  0.00  0.00    +0.078 C 
ATOM      5  C   UNL     1       3.142   4.708 -23.144  0.00  0.00    +0.144 C 
ATOM      6  N   UNL     1       0.356   4.412 -25.139  0.00  0.00    -0.278 NA
ATOM      7  C   UNL     1       3.273   3.486 -22.723  0.00  0.00    +0.107 C 
ATOM      8  N   UNL     1       4.246   3.178 -21.917  0.00  0.00    -0.278 NA
ENDROOT
BRANCH   2   9
ATOM      9  O   UNL     1       0.619   1.967 -24.296  0.00  0.00    -0.504 OA
ATOM     10  H   UNL     1      -0.292   2.172 -24.374  0.00  0.00    +0.292 HD
ENDBRANCH   2   9
BRANCH   5  11
ATOM     11  O   UNL     1       3.983   5.623 -22.760  0.00  0.00    -0.505 OA
ATOM     12  H   UNL     1       4.889   5.550 -22.985  0.00  0.00    +0.292 HD
ENDBRANCH   5  11
BRANCH   6  13
ATOM     13  C   UNL     1      -0.485   3.498 -25.523  0.00  0.00    +0.170 C 
BRANCH  13  14
ATOM     14  C   UNL     1      -1.759   3.661 -25.324  0.00  0.00    +0.179 C 
BRANCH  14  15
ATOM     15  O   UNL     1      -2.173   4.405 -24.341  0.00  0.00    -0.393 OA
ATOM     16  H   UNL     1      -3.130   4.549 -24.425  0.00  0.00    +0.209 HD
ENDBRANCH  14  15
ENDBRANCH  13  14
ENDBRANCH   6  13
BRANCH   8  17
ATOM     17  C   UNL     1       4.378   1.955 -21.496  0.00  0.00    +0.170 C 
BRANCH  17  18
ATOM     18  C   UNL     1       5.521   1.549 -21.029  0.00  0.00    +0.179 C 
BRANCH  18  19
ATOM     19  O   UNL     1       5.631   1.220 -19.775  0.00  0.00    -0.393 OA
ATOM     20  H   UNL     1       5.390   0.287 -19.663  0.00  0.00    +0.209 HD
ENDBRANCH  18  19
ENDBRANCH  17  18
ENDBRANCH   8  17
BRANCH   1  21
ATOM     21  C   UNL     1       2.564   1.349 -22.685  0.00  0.00    +0.041 C 
BRANCH  21  22
ATOM     22  C   UNL     1       1.597   0.780 -22.029  0.00  0.00    +0.005 C 
BRANCH  22  23
ATOM     23  C   UNL     1       0.960   1.440 -21.108  0.00  0.00    +0.000 C 
BRANCH  23  24
ATOM     24  C   UNL     1      -0.339   1.447 -21.095  0.00  0.00    +0.000 C 
BRANCH  24  25
ATOM     25  C   UNL     1      -0.986   2.545 -21.360  0.00  0.00    +0.000 C 
BRANCH  25  26
ATOM     26  C   UNL     1      -2.285   2.556 -21.331  0.00  0.00    +0.000 C 
BRANCH  26  27
ATOM     27  C   UNL     1      -2.910   3.410 -20.576  0.00  0.00    -0.000 C 
BRANCH  27  28
ATOM     28  C   UNL     1      -4.196   3.562 -20.692  0.00  0.00    -0.000 C 
BRANCH  28  29
ATOM     29  C   UNL     1      -4.870   2.797 -21.498  0.00  0.00    -0.000 C 
BRANCH  29  31
ATOM     30  C   UNL     1      -5.374   3.769 -23.466  0.00  0.00    +0.004 C 
ATOM     31  C   UNL     1      -5.747   3.317 -22.305  0.00  0.00    -0.003 C 
ENDBRANCH  29  31
ENDBRANCH  28  29
ENDBRANCH  27  28
ENDBRANCH  26  27
ENDBRANCH  25  26
ENDBRANCH  24  25
ENDBRANCH  23  24
ENDBRANCH  22  23
ENDBRANCH  21  22
ENDBRANCH   1  21
TORSDOF 18
ENDMDL
MODEL 7
REMARK VINA RESULT:    -7.179      3.379      5.220
REMARK INTER + INTRA:         -14.133
REMARK INTER:                 -13.019
REMARK INTRA:                  -1.114
REMARK UNBOUND:                -0.239
REMARK  Name = CCCCCCCCCCCC1=C(O)/C(=N\CCO)C=C(O)/C1=N/CCO                          ZINC000100393423
REMARK  19 active torsions:
REMARK  status: ('A' for Active; 'I' for Inactive)
REMARK    1  A    between atoms: C_1  and  C_2
REMARK    2  A    between atoms: C_2  and  C_3
REMARK    3  A    between atoms: C_3  and  C_4
REMARK    4  A    between atoms: C_4  and  C_5
REMARK    5  A    between atoms: C_5  and  C_6
REMARK    6  A    between atoms: C_6  and  C_7
REMARK    7  A    between atoms: C_7  and  C_8
REMARK    8  A    between atoms: C_8  and  C_9
REMARK    9  A    between atoms: C_9  and  C_10
REMARK   10  A    between atoms: C_10  and  C_11
REMARK   11  A    between atoms: C_11  and  C_12
REMARK   12  A    between atoms: C_13  and  O_14
REMARK   13  A    between atoms: N_16  and  C_17
REMARK   14  A    between atoms: C_17  and  C_18
REMARK   15  A    between atoms: C_18  and  O_19
REMARK   16  A    between atoms: C_21  and  O_22
REMARK   17  A    between atoms: N_24  and  C_25
REMARK   18  A    between atoms: C_25  and  C_26
REMARK   19  A    between atoms: C_26  and  O_27
REMARK                            x       y       z     vdW  Elec       q    Type
REMARK                         _______ _______ _______ _____ _____    ______ ____
ROOT
ATOM      1  C   UNL     1       4.275   3.689 -23.236  0.00  0.00    +0.025 C 
ATOM      2  C   UNL     1       5.013   4.610 -22.692  0.00  0.00    +0.147 C 
ATOM      3  C   UNL     1       6.136   4.290 -22.120  0.00  0.00    +0.104 C 
ATOM      4  C   UNL     1       6.520   3.049 -22.092  0.00  0.00    +0.078 C 
ATOM      5  C   UNL     1       5.781   2.127 -22.635  0.00  0.00    +0.144 C 
ATOM      6  N   UNL     1       6.874   5.212 -21.576  0.00  0.00    -0.278 NA
ATOM      7  C   UNL     1       4.659   2.447 -23.208  0.00  0.00    +0.107 C 
ATOM      8  N   UNL     1       3.921   1.526 -23.752  0.00  0.00    -0.278 NA
ENDROOT
BRANCH   2   9
ATOM      9  O   UNL     1       4.630   5.852 -22.721  0.00  0.00    -0.504 OA
ATOM     10  H   UNL     1       3.781   6.072 -23.053  0.00  0.00    +0.292 HD
ENDBRANCH   2   9
BRANCH   5  11
ATOM     11  O   UNL     1       6.166   0.885 -22.607  0.00  0.00    -0.505 OA
ATOM     12  H   UNL     1       6.993   0.659 -22.228  0.00  0.00    +0.292 HD
ENDBRANCH   5  11
BRANCH   6  13
ATOM     13  C   UNL     1       6.490   6.453 -21.605  0.00  0.00    +0.170 C 
BRANCH  13  14
ATOM     14  C   UNL     1       6.500   7.162 -20.515  0.00  0.00    +0.179 C 
BRANCH  14  15
ATOM     15  O   UNL     1       5.380   7.510 -19.955  0.00  0.00    -0.393 OA
ATOM     16  H   UNL     1       4.896   6.715 -19.677  0.00  0.00    +0.209 HD
ENDBRANCH  14  15
ENDBRANCH  13  14
ENDBRANCH   6  13
BRANCH   8  17
ATOM     17  C   UNL     1       2.799   1.846 -24.324  0.00  0.00    +0.170 C 
BRANCH  17  18
ATOM     18  C   UNL     1       2.434   1.248 -25.419  0.00  0.00    +0.179 C 
BRANCH  18  19
ATOM     19  O   UNL     1       1.910   1.935 -26.391  0.00  0.00    -0.393 OA
ATOM     20  H   UNL     1       1.928   1.409 -27.205  0.00  0.00    +0.209 HD
ENDBRANCH  18  19
ENDBRANCH  17  18
ENDBRANCH   8  17
BRANCH   1  21
ATOM     21  C   UNL     1       3.152   4.009 -23.809  0.00  0.00    +0.041 C 
BRANCH  21  22
ATOM     22  C   UNL     1       2.166   4.466 -23.096  0.00  0.00    +0.005 C 
BRANCH  22  23
ATOM     23  C   UNL     1       1.241   5.189 -23.653  0.00  0.00    +0.000 C 
BRANCH  23  24
ATOM     24  C   UNL     1       0.022   4.744 -23.722  0.00  0.00    +0.000 C 
BRANCH  24  25
ATOM     25  C   UNL     1      -0.822   5.010 -22.768  0.00  0.00    +0.000 C 
BRANCH  25  26
ATOM     26  C   UNL     1      -1.742   4.147 -22.457  0.00  0.00    +0.000 C 
BRANCH  26  27
ATOM     27  C   UNL     1      -1.512   2.875 -22.588  0.00  0.00    -0.000 C 
BRANCH  27  28
ATOM     28  C   UNL     1      -1.122   2.175 -21.564  0.00  0.00    -0.000 C 
BRANCH  28  29
ATOM     29  C   UNL     1       0.003   1.527 -21.610  0.00  0.00    -0.000 C 
BRANCH  29  31
ATOM     30  C   UNL     1       2.079   1.547 -20.737  0.00  0.00    +0.004 C 
ATOM     31  C   UNL     1       0.789   1.516 -20.575  0.00  0.00    -0.003 C 
ENDBRANCH  29  31
ENDBRANCH  28  29
ENDBRANCH  27  28
ENDBRANCH  26  27
ENDBRANCH  25  26
ENDBRANCH  24  25
ENDBRANCH  23  24
ENDBRANCH  22  23
ENDBRANCH  21  22
ENDBRANCH   1  21
TORSDOF 18
ENDMDL
MODEL 8
REMARK VINA RESULT:    -6.691      2.622      6.007
REMARK INTER + INTRA:         -13.189
REMARK INTER:                 -13.265
REMARK INTRA:                   0.076
REMARK UNBOUND:                -0.239
REMARK  Name = CCCCCCCCCCCC1=C(O)/C(=N\CCO)C=C(O)/C1=N/CCO                          ZINC000100393423
REMARK  19 active torsions:
REMARK  status: ('A' for Active; 'I' for Inactive)
REMARK    1  A    between atoms: C_1  and  C_2
REMARK    2  A    between atoms: C_2  and  C_3
REMARK    3  A    between atoms: C_3  and  C_4
REMARK    4  A    between atoms: C_4  and  C_5
REMARK    5  A    between atoms: C_5  and  C_6
REMARK    6  A    between atoms: C_6  and  C_7
REMARK    7  A    between atoms: C_7  and  C_8
REMARK    8  A    between atoms: C_8  and  C_9
REMARK    9  A    between atoms: C_9  and  C_10
REMARK   10  A    between atoms: C_10  and  C_11
REMARK   11  A    between atoms: C_11  and  C_12
REMARK   12  A    between atoms: C_13  and  O_14
REMARK   13  A    between atoms: N_16  and  C_17
REMARK   14  A    between atoms: C_17  and  C_18
REMARK   15  A    between atoms: C_18  and  O_19
REMARK   16  A    between atoms: C_21  and  O_22
REMARK   17  A    between atoms: N_24  and  C_25
REMARK   18  A    between atoms: C_25  and  C_26
REMARK   19  A    between atoms: C_26  and  O_27
REMARK                            x       y       z     vdW  Elec       q    Type
REMARK                         _______ _______ _______ _____ _____    ______ ____
ROOT
ATOM      1  C   UNL     1      -1.327   2.570 -23.404  0.00  0.00    +0.025 C 
ATOM      2  C   UNL     1      -0.276   2.072 -22.823  0.00  0.00    +0.147 C 
ATOM      3  C   UNL     1      -0.288   1.845 -21.543  0.00  0.00    +0.104 C 
ATOM      4  C   UNL     1      -1.350   2.115 -20.845  0.00  0.00    +0.078 C 
ATOM      5  C   UNL     1      -2.401   2.612 -21.427  0.00  0.00    +0.144 C 
ATOM      6  N   UNL     1       0.763   1.347 -20.962  0.00  0.00    -0.278 NA
ATOM      7  C   UNL     1      -2.389   2.840 -22.706  0.00  0.00    +0.107 C 
ATOM      8  N   UNL     1      -3.440   3.337 -23.288  0.00  0.00    -0.278 NA
ENDROOT
BRANCH   2   9
ATOM      9  O   UNL     1       0.787   1.802 -23.521  0.00  0.00    -0.504 OA
ATOM     10  H   UNL     1       1.622   2.129 -23.249  0.00  0.00    +0.292 HD
ENDBRANCH   2   9
BRANCH   5  11
ATOM     11  O   UNL     1      -3.464   2.882 -20.728  0.00  0.00    -0.505 OA
ATOM     12  H   UNL     1      -3.399   3.425 -19.967  0.00  0.00    +0.292 HD
ENDBRANCH   5  11
BRANCH   6  13
ATOM     13  C   UNL     1       1.826   1.077 -21.660  0.00  0.00    +0.170 C 
BRANCH  13  14
ATOM     14  C   UNL     1       2.999   1.122 -21.102  0.00  0.00    +0.179 C 
BRANCH  14  15
ATOM     15  O   UNL     1       3.175   0.623 -19.915  0.00  0.00    -0.393 OA
ATOM     16  H   UNL     1       2.531  -0.088 -19.765  0.00  0.00    +0.209 HD
ENDBRANCH  14  15
ENDBRANCH  13  14
ENDBRANCH   6  13
BRANCH   8  17
ATOM     17  C   UNL     1      -3.429   3.565 -24.567  0.00  0.00    +0.170 C 
BRANCH  17  18
ATOM     18  C   UNL     1      -4.493   4.023 -25.156  0.00  0.00    +0.179 C 
BRANCH  18  19
ATOM     19  O   UNL     1      -4.794   5.285 -25.064  0.00  0.00    -0.393 OA
ATOM     20  H   UNL     1      -5.722   5.416 -25.313  0.00  0.00    +0.209 HD
ENDBRANCH  18  19
ENDBRANCH  17  18
ENDBRANCH   8  17
BRANCH   1  21
ATOM     21  C   UNL     1      -1.315   2.797 -24.685  0.00  0.00    +0.041 C 
BRANCH  21  22
ATOM     22  C   UNL     1      -0.739   3.866 -25.150  0.00  0.00    +0.005 C 
BRANCH  22  23
ATOM     23  C   UNL     1       0.434   3.783 -25.703  0.00  0.00    +0.000 C 
BRANCH  23  24
ATOM     24  C   UNL     1       1.425   4.479 -25.233  0.00  0.00    +0.000 C 
BRANCH  24  25
ATOM     25  C   UNL     1       1.323   5.050 -24.068  0.00  0.00    +0.000 C 
BRANCH  25  26
ATOM     26  C   UNL     1       2.382   5.218 -23.333  0.00  0.00    +0.000 C 
BRANCH  26  27
ATOM     27  C   UNL     1       3.191   4.223 -23.122  0.00  0.00    -0.000 C 
BRANCH  27  28
ATOM     28  C   UNL     1       4.477   4.414 -23.147  0.00  0.00    -0.000 C 
BRANCH  28  29
ATOM     29  C   UNL     1       5.278   3.414 -23.361  0.00  0.00    -0.000 C 
BRANCH  29  31
ATOM     30  C   UNL     1       6.417   3.401 -21.417  0.00  0.00    +0.004 C 
ATOM     31  C   UNL     1       6.404   3.334 -22.716  0.00  0.00    -0.003 C 
ENDBRANCH  29  31
ENDBRANCH  28  29
ENDBRANCH  27  28
ENDBRANCH  26  27
ENDBRANCH  25  26
ENDBRANCH  24  25
ENDBRANCH  23  24
ENDBRANCH  22  23
ENDBRANCH  21  22
ENDBRANCH   1  21
TORSDOF 18
ENDMDL
MODEL 9
REMARK VINA RESULT:    -6.302      3.221      8.050
REMARK INTER + INTRA:         -12.435
REMARK INTER:                 -12.196
REMARK INTRA:                  -0.239
REMARK UNBOUND:                -0.239
REMARK  Name = CCCCCCCCCCCC1=C(O)/C(=N\CCO)C=C(O)/C1=N/CCO                          ZINC000100393423
REMARK  19 active torsions:
REMARK  status: ('A' for Active; 'I' for Inactive)
REMARK    1  A    between atoms: C_1  and  C_2
REMARK    2  A    between atoms: C_2  and  C_3
REMARK    3  A    between atoms: C_3  and  C_4
REMARK    4  A    between atoms: C_4  and  C_5
REMARK    5  A    between atoms: C_5  and  C_6
REMARK    6  A    between atoms: C_6  and  C_7
REMARK    7  A    between atoms: C_7  and  C_8
REMARK    8  A    between atoms: C_8  and  C_9
REMARK    9  A    between atoms: C_9  and  C_10
REMARK   10  A    between atoms: C_10  and  C_11
REMARK   11  A    between atoms: C_11  and  C_12
REMARK   12  A    between atoms: C_13  and  O_14
REMARK   13  A    between atoms: N_16  and  C_17
REMARK   14  A    between atoms: C_17  and  C_18
REMARK   15  A    between atoms: C_18  and  O_19
REMARK   16  A    between atoms: C_21  and  O_22
REMARK   17  A    between atoms: N_24  and  C_25
REMARK   18  A    between atoms: C_25  and  C_26
REMARK   19  A    between atoms: C_26  and  O_27
REMARK                            x       y       z     vdW  Elec       q    Type
REMARK                         _______ _______ _______ _____ _____    ______ ____
ROOT
ATOM      1  C   UNL     1      -0.090   2.455 -23.473  0.00  0.00    +0.025 C 
ATOM      2  C   UNL     1      -0.927   2.885 -24.369  0.00  0.00    +0.147 C 
ATOM      3  C   UNL     1      -2.160   3.132 -24.042  0.00  0.00    +0.104 C 
ATOM      4  C   UNL     1      -2.557   2.948 -22.818  0.00  0.00    +0.078 C 
ATOM      5  C   UNL     1      -1.720   2.518 -21.921  0.00  0.00    +0.144 C 
ATOM      6  N   UNL     1      -2.997   3.562 -24.939  0.00  0.00    -0.278 NA
ATOM      7  C   UNL     1      -0.486   2.271 -22.248  0.00  0.00    +0.107 C 
ATOM      8  N   UNL     1       0.351   1.841 -21.352  0.00  0.00    -0.278 NA
ENDROOT
BRANCH   2   9
ATOM      9  O   UNL     1      -0.531   3.068 -25.594  0.00  0.00    -0.504 OA
ATOM     10  H   UNL     1       0.126   2.510 -25.962  0.00  0.00    +0.292 HD
ENDBRANCH   2   9
BRANCH   5  11
ATOM     11  O   UNL     1      -2.117   2.334 -20.696  0.00  0.00    -0.505 OA
ATOM     12  H   UNL     1      -2.047   1.486 -20.303  0.00  0.00    +0.292 HD
ENDBRANCH   5  11
BRANCH   6  13
ATOM     13  C   UNL     1      -2.601   3.745 -26.163  0.00  0.00    +0.170 C 
BRANCH  13  14
ATOM     14  C   UNL     1      -3.363   3.389 -27.154  0.00  0.00    +0.179 C 
BRANCH  14  15
ATOM     15  O   UNL     1      -4.564   2.948 -26.924  0.00  0.00    -0.393 OA
ATOM     16  H   UNL     1      -4.596   2.536 -26.046  0.00  0.00    +0.209 HD
ENDBRANCH  14  15
ENDBRANCH  13  14
ENDBRANCH   6  13
BRANCH   8  17
ATOM     17  C   UNL     1       1.584   1.594 -21.679  0.00  0.00    +0.170 C 
BRANCH  17  18
ATOM     18  C   UNL     1       2.502   1.539 -20.760  0.00  0.00    +0.179 C 
BRANCH  18  19
ATOM     19  O   UNL     1       2.175   1.274 -19.530  0.00  0.00    -0.393 OA
ATOM     20  H   UNL     1       2.498   0.391 -19.293  0.00  0.00    +0.209 HD
ENDBRANCH  18  19
ENDBRANCH  17  18
ENDBRANCH   8  17
BRANCH   1  21
ATOM     21  C   UNL     1       1.144   2.208 -23.801  0.00  0.00    +0.041 C 
BRANCH  21  22
ATOM     22  C   UNL     1       1.855   3.122 -24.392  0.00  0.00    +0.005 C 
BRANCH  22  23
ATOM     23  C   UNL     1       2.337   4.114 -23.705  0.00  0.00    +0.000 C 
BRANCH  23  24
ATOM     24  C   UNL     1       3.592   4.121 -23.366  0.00  0.00    +0.000 C 
BRANCH  24  25
ATOM     25  C   UNL     1       4.363   3.131 -23.711  0.00  0.00    +0.000 C 
BRANCH  25  26
ATOM     26  C   UNL     1       5.451   2.892 -23.041  0.00  0.00    +0.000 C 
BRANCH  26  27
ATOM     27  C   UNL     1       6.564   3.470 -23.382  0.00  0.00    -0.000 C 
BRANCH  27  28
ATOM     28  C   UNL     1       7.242   4.148 -22.503  0.00  0.00    -0.000 C 
BRANCH  28  29
ATOM     29  C   UNL     1       7.120   5.441 -22.445  0.00  0.00    -0.000 C 
BRANCH  29  31
ATOM     30  C   UNL     1       7.156   5.452 -20.194  0.00  0.00    +0.004 C 
ATOM     31  C   UNL     1       6.825   6.016 -21.318  0.00  0.00    -0.003 C 
ENDBRANCH  29  31
ENDBRANCH  28  29
ENDBRANCH  27  28
ENDBRANCH  26  27
ENDBRANCH  25  26
ENDBRANCH  24  25
ENDBRANCH  23  24
ENDBRANCH  22  23
ENDBRANCH  21  22
ENDBRANCH   1  21
TORSDOF 18
ENDMDL
