MODEL 1
REMARK VINA RESULT:   -11.049      0.000      0.000
REMARK INTER + INTRA:         -11.824
REMARK INTER:                 -11.695
REMARK INTRA:                  -0.129
REMARK UNBOUND:                -0.128
REMARK  Name = ZINC000096316327
REMARK  2 active torsions:
REMARK  status: ('A' for Active; 'I' for Inactive)
REMARK    1  A    between atoms: C_1  and  O_2
REMARK    2  A    between atoms: O_2  and  C_3
REMARK                            x       y       z     vdW  Elec       q    Type
REMARK                         _______ _______ _______ _____ _____    ______ ____
ROOT
ATOM      1  C   UNL     1      -0.004   2.873 -23.869  0.00  0.00    +0.162 A 
ATOM      2  C   UNL     1      -0.108   3.361 -25.025  0.00  0.00    +0.050 A 
ATOM      3  C   UNL     1      -1.212   3.759 -25.443  0.00  0.00    +0.008 A 
ATOM      4  C   UNL     1      -2.220   3.675 -24.716  0.00  0.00    -0.034 A 
ATOM      5  C   UNL     1      -2.137   3.193 -23.563  0.00  0.00    +0.016 A 
ATOM      6  C   UNL     1      -3.145   3.110 -22.836  0.00  0.00    +0.071 C 
ATOM      7  C   UNL     1      -4.221   2.966 -21.925  0.00  0.00    +0.071 C 
ATOM      8  C   UNL     1      -5.478   3.406 -22.369  0.00  0.00    +0.131 C 
ATOM      9  N   UNL     1      -5.555   3.944 -23.663  0.00  0.00    +0.233 N 
ATOM     10  H   UNL     1      -5.826   4.918 -23.530  0.00  0.00    +0.202 HD
ATOM     11  H   UNL     1      -6.222   3.381 -24.192  0.00  0.00    +0.202 HD
ATOM     12  C   UNL     1      -4.352   3.995 -24.410  0.00  0.00    +0.095 C 
ATOM     13  C   UNL     1      -4.249   3.508 -23.255  0.00  0.00    -0.007 C 
ATOM     14  C   UNL     1      -5.269   3.423 -22.519  0.00  0.00    +0.006 C 
ATOM     15  C   UNL     1      -5.175   2.942 -21.375  0.00  0.00    -0.000 C 
ATOM     16  C   UNL     1      -4.062   2.538 -20.945  0.00  0.00    +0.018 C 
ATOM     17  C   UNL     1      -3.054   2.621 -21.672  0.00  0.00    +0.212 C 
ATOM     18  O   UNL     1      -1.577   2.372 -21.813  0.00  0.00    -0.480 OA
ATOM     19  C   UNL     1      -3.345   4.079 -25.137  0.00  0.00    +0.094 C 
ATOM     20  C   UNL     1      -1.025   2.789 -23.134  0.00  0.00    +0.167 A 
ENDROOT
BRANCH   1  22
ATOM     21  C   UNL     1       2.026   3.291 -23.232  0.00  0.00    +0.277 C 
ATOM     22  O   UNL     1       1.111   2.473 -23.449  0.00  0.00    -0.491 OA
ENDBRANCH   1  22
TORSDOF 1
ENDMDL
MODEL 2
REMARK VINA RESULT:   -10.966      1.212      2.612
REMARK INTER + INTRA:         -11.736
REMARK INTER:                 -11.593
REMARK INTRA:                  -0.143
REMARK UNBOUND:                -0.128
REMARK  Name = ZINC000096316327
REMARK  2 active torsions:
REMARK  status: ('A' for Active; 'I' for Inactive)
REMARK    1  A    between atoms: C_1  and  O_2
REMARK    2  A    between atoms: O_2  and  C_3
REMARK                            x       y       z     vdW  Elec       q    Type
REMARK                         _______ _______ _______ _____ _____    ______ ____
ROOT
ATOM      1  C   UNL     1       0.072   2.256 -23.248  0.00  0.00    +0.162 A 
ATOM      2  C   UNL     1       0.074   1.883 -22.046  0.00  0.00    +0.050 A 
ATOM      3  C   UNL     1      -0.965   1.958 -21.362  0.00  0.00    +0.008 A 
ATOM      4  C   UNL     1      -2.012   2.405 -21.868  0.00  0.00    -0.034 A 
ATOM      5  C   UNL     1      -2.035   2.781 -23.062  0.00  0.00    +0.016 A 
ATOM      6  C   UNL     1      -3.081   3.227 -23.567  0.00  0.00    +0.071 C 
ATOM      7  C   UNL     1      -4.212   3.750 -24.245  0.00  0.00    +0.071 C 
ATOM      8  C   UNL     1      -5.397   3.847 -23.500  0.00  0.00    +0.131 C 
ATOM      9  N   UNL     1      -5.356   3.421 -22.162  0.00  0.00    +0.233 N 
ATOM     10  H   UNL     1      -5.993   2.624 -22.118  0.00  0.00    +0.202 HD
ATOM     11  H   UNL     1      -5.620   4.214 -21.578  0.00  0.00    +0.202 HD
ATOM     12  C   UNL     1      -4.118   2.929 -21.682  0.00  0.00    +0.095 C 
ATOM     13  C   UNL     1      -4.120   3.302 -22.884  0.00  0.00    -0.007 C 
ATOM     14  C   UNL     1      -5.180   3.754 -23.395  0.00  0.00    +0.006 C 
ATOM     15  C   UNL     1      -5.190   4.125 -24.583  0.00  0.00    -0.000 C 
ATOM     16  C   UNL     1      -4.144   4.052 -25.280  0.00  0.00    +0.018 C 
ATOM     17  C   UNL     1      -3.096   3.606 -24.775  0.00  0.00    +0.212 C 
ATOM     18  O   UNL     1      -1.645   3.267 -24.976  0.00  0.00    -0.480 OA
ATOM     19  C   UNL     1      -3.071   2.483 -21.176  0.00  0.00    +0.094 C 
ATOM     20  C   UNL     1      -0.989   2.708 -23.759  0.00  0.00    +0.167 A 
ENDROOT
BRANCH   1  22
ATOM     21  C   UNL     1       1.818   3.195 -24.125  0.00  0.00    +0.277 C 
ATOM     22  O   UNL     1       1.121   2.179 -23.935  0.00  0.00    -0.491 OA
ENDBRANCH   1  22
TORSDOF 1
ENDMDL
MODEL 3
REMARK VINA RESULT:   -10.253      2.007      4.490
REMARK INTER + INTRA:         -10.981
REMARK INTER:                 -10.894
REMARK INTRA:                  -0.087
REMARK UNBOUND:                -0.128
REMARK  Name = ZINC000096316327
REMARK  2 active torsions:
REMARK  status: ('A' for Active; 'I' for Inactive)
REMARK    1  A    between atoms: C_1  and  O_2
REMARK    2  A    between atoms: O_2  and  C_3
REMARK                            x       y       z     vdW  Elec       q    Type
REMARK                         _______ _______ _______ _____ _____    ______ ____
ROOT
ATOM      1  C   UNL     1      -4.881   3.608 -22.930  0.00  0.00    +0.162 A 
ATOM      2  C   UNL     1      -5.009   4.037 -24.106  0.00  0.00    +0.050 A 
ATOM      3  C   UNL     1      -4.036   4.037 -24.886  0.00  0.00    +0.008 A 
ATOM      4  C   UNL     1      -2.932   3.609 -24.502  0.00  0.00    -0.034 A 
ATOM      5  C   UNL     1      -2.784   3.177 -23.335  0.00  0.00    +0.016 A 
ATOM      6  C   UNL     1      -1.679   2.750 -22.952  0.00  0.00    +0.071 C 
ATOM      7  C   UNL     1      -0.473   2.241 -22.408  0.00  0.00    +0.071 C 
ATOM      8  C   UNL     1       0.640   2.228 -23.263  0.00  0.00    +0.131 C 
ATOM      9  N   UNL     1       0.459   2.715 -24.567  0.00  0.00    +0.233 N 
ATOM     10  H   UNL     1       0.621   1.912 -25.175  0.00  0.00    +0.202 HD
ATOM     11  H   UNL     1       1.109   3.491 -24.699  0.00  0.00    +0.202 HD
ATOM     12  C   UNL     1      -0.835   3.179 -24.906  0.00  0.00    +0.095 C 
ATOM     13  C   UNL     1      -0.707   2.749 -23.731  0.00  0.00    -0.007 C 
ATOM     14  C   UNL     1       0.411   2.316 -23.342  0.00  0.00    +0.006 C 
ATOM     15  C   UNL     1       0.545   1.890 -22.181  0.00  0.00    -0.000 C 
ATOM     16  C   UNL     1      -0.433   1.887 -21.388  0.00  0.00    +0.018 C 
ATOM     17  C   UNL     1      -1.538   2.315 -21.771  0.00  0.00    +0.212 C 
ATOM     18  O   UNL     1      -2.976   2.586 -21.421  0.00  0.00    -0.480 OA
ATOM     19  C   UNL     1      -1.940   3.606 -25.290  0.00  0.00    +0.094 C 
ATOM     20  C   UNL     1      -3.762   3.175 -22.543  0.00  0.00    +0.167 A 
ENDROOT
BRANCH   1  22
ATOM     21  C   UNL     1      -6.325   2.533 -21.722  0.00  0.00    +0.277 C 
ATOM     22  O   UNL     1      -5.864   3.610 -22.146  0.00  0.00    -0.491 OA
ENDBRANCH   1  22
TORSDOF 1
ENDMDL
MODEL 4
REMARK VINA RESULT:    -9.601      2.277      5.454
REMARK INTER + INTRA:         -10.291
REMARK INTER:                 -10.185
REMARK INTRA:                  -0.106
REMARK UNBOUND:                -0.128
REMARK  Name = ZINC000096316327
REMARK  2 active torsions:
REMARK  status: ('A' for Active; 'I' for Inactive)
REMARK    1  A    between atoms: C_1  and  O_2
REMARK    2  A    between atoms: O_2  and  C_3
REMARK                            x       y       z     vdW  Elec       q    Type
REMARK                         _______ _______ _______ _____ _____    ______ ____
ROOT
ATOM      1  C   UNL     1      -3.612   3.261 -22.637  0.00  0.00    +0.162 A 
ATOM      2  C   UNL     1      -3.538   2.621 -21.555  0.00  0.00    +0.050 A 
ATOM      3  C   UNL     1      -2.455   2.123 -21.192  0.00  0.00    +0.008 A 
ATOM      4  C   UNL     1      -1.440   2.257 -21.899  0.00  0.00    -0.034 A 
ATOM      5  C   UNL     1      -1.492   2.890 -22.978  0.00  0.00    +0.016 A 
ATOM      6  C   UNL     1      -0.477   3.025 -23.686  0.00  0.00    +0.071 C 
ATOM      7  C   UNL     1       0.611   3.240 -24.569  0.00  0.00    +0.071 C 
ATOM      8  C   UNL     1       1.845   2.691 -24.186  0.00  0.00    +0.131 C 
ATOM      9  N   UNL     1       1.888   1.984 -22.973  0.00  0.00    +0.233 N 
ATOM     10  H   UNL     1       2.518   2.520 -22.376  0.00  0.00    +0.202 HD
ATOM     11  H   UNL     1       2.199   1.034 -23.181  0.00  0.00    +0.202 HD
ATOM     12  C   UNL     1       0.679   1.887 -22.242  0.00  0.00    +0.095 C 
ATOM     13  C   UNL     1       0.606   2.527 -23.323  0.00  0.00    -0.007 C 
ATOM     14  C   UNL     1       1.634   2.663 -24.039  0.00  0.00    +0.006 C 
ATOM     15  C   UNL     1       1.569   3.294 -25.110  0.00  0.00    -0.000 C 
ATOM     16  C   UNL     1       0.478   3.800 -25.483  0.00  0.00    +0.018 C 
ATOM     17  C   UNL     1      -0.538   3.666 -24.776  0.00  0.00    +0.212 C 
ATOM     18  O   UNL     1      -2.003   3.960 -24.605  0.00  0.00    -0.480 OA
ATOM     19  C   UNL     1      -0.337   1.753 -21.534  0.00  0.00    +0.094 C 
ATOM     20  C   UNL     1      -2.583   3.396 -23.352  0.00  0.00    +0.167 A 
ENDROOT
BRANCH   1  22
ATOM     21  C   UNL     1      -5.767   3.407 -22.454  0.00  0.00    +0.277 C 
ATOM     22  O   UNL     1      -4.706   3.762 -23.001  0.00  0.00    -0.491 OA
ENDBRANCH   1  22
TORSDOF 1
ENDMDL
MODEL 5
REMARK VINA RESULT:    -9.466      1.432      2.264
REMARK INTER + INTRA:         -10.148
REMARK INTER:                 -10.029
REMARK INTRA:                  -0.119
REMARK UNBOUND:                -0.128
REMARK  Name = ZINC000096316327
REMARK  2 active torsions:
REMARK  status: ('A' for Active; 'I' for Inactive)
REMARK    1  A    between atoms: C_1  and  O_2
REMARK    2  A    between atoms: O_2  and  C_3
REMARK                            x       y       z     vdW  Elec       q    Type
REMARK                         _______ _______ _______ _____ _____    ______ ____
ROOT
ATOM      1  C   UNL     1       1.488   1.574 -22.322  0.00  0.00    +0.162 A 
ATOM      2  C   UNL     1       2.045   1.977 -23.376  0.00  0.00    +0.050 A 
ATOM      3  C   UNL     1       1.394   2.610 -24.230  0.00  0.00    +0.008 A 
ATOM      4  C   UNL     1       0.186   2.845 -24.042  0.00  0.00    -0.034 A 
ATOM      5  C   UNL     1      -0.387   2.453 -23.000  0.00  0.00    +0.016 A 
ATOM      6  C   UNL     1      -1.595   2.688 -22.812  0.00  0.00    +0.071 C 
ATOM      7  C   UNL     1      -2.961   2.898 -22.493  0.00  0.00    +0.071 C 
ATOM      8  C   UNL     1      -3.720   3.608 -23.437  0.00  0.00    +0.131 C 
ATOM      9  N   UNL     1      -3.064   4.042 -24.600  0.00  0.00    +0.233 N 
ATOM     10  H   UNL     1      -3.098   5.061 -24.559  0.00  0.00    +0.202 HD
ATOM     11  H   UNL     1      -3.546   3.628 -25.398  0.00  0.00    +0.202 HD
ATOM     12  C   UNL     1      -1.689   3.724 -24.719  0.00  0.00    +0.095 C 
ATOM     13  C   UNL     1      -2.247   3.321 -23.665  0.00  0.00    -0.007 C 
ATOM     14  C   UNL     1      -3.470   3.559 -23.476  0.00  0.00    +0.006 C 
ATOM     15  C   UNL     1      -4.028   3.164 -22.436  0.00  0.00    -0.000 C 
ATOM     16  C   UNL     1      -3.376   2.524 -21.569  0.00  0.00    +0.018 C 
ATOM     17  C   UNL     1      -2.168   2.288 -21.756  0.00  0.00    +0.212 C 
ATOM     18  O   UNL     1      -0.909   1.658 -21.226  0.00  0.00    -0.480 OA
ATOM     19  C   UNL     1      -0.481   3.488 -24.907  0.00  0.00    +0.094 C 
ATOM     20  C   UNL     1       0.264   1.813 -22.133  0.00  0.00    +0.167 A 
ENDROOT
BRANCH   1  22
ATOM     21  C   UNL     1       3.219   1.401 -21.028  0.00  0.00    +0.277 C 
ATOM     22  O   UNL     1       2.147   0.936 -21.463  0.00  0.00    -0.491 OA
ENDBRANCH   1  22
TORSDOF 1
ENDMDL
MODEL 6
REMARK VINA RESULT:    -9.263      2.549      3.938
REMARK INTER + INTRA:          -9.933
REMARK INTER:                  -9.790
REMARK INTRA:                  -0.143
REMARK UNBOUND:                -0.128
REMARK  Name = ZINC000096316327
REMARK  2 active torsions:
REMARK  status: ('A' for Active; 'I' for Inactive)
REMARK    1  A    between atoms: C_1  and  O_2
REMARK    2  A    between atoms: O_2  and  C_3
REMARK                            x       y       z     vdW  Elec       q    Type
REMARK                         _______ _______ _______ _____ _____    ______ ____
ROOT
ATOM      1  C   UNL     1       3.477   1.766 -22.785  0.00  0.00    +0.162 A 
ATOM      2  C   UNL     1       4.026   2.745 -23.354  0.00  0.00    +0.050 A 
ATOM      3  C   UNL     1       3.363   3.761 -23.640  0.00  0.00    +0.008 A 
ATOM      4  C   UNL     1       2.150   3.810 -23.362  0.00  0.00    -0.034 A 
ATOM      5  C   UNL     1       1.585   2.847 -22.796  0.00  0.00    +0.016 A 
ATOM      6  C   UNL     1       0.372   2.896 -22.518  0.00  0.00    +0.071 C 
ATOM      7  C   UNL     1      -0.997   2.842 -22.156  0.00  0.00    +0.071 C 
ATOM      8  C   UNL     1      -1.770   3.973 -22.465  0.00  0.00    +0.131 C 
ATOM      9  N   UNL     1      -1.122   5.045 -23.099  0.00  0.00    +0.233 N 
ATOM     10  H   UNL     1      -1.176   5.818 -22.435  0.00  0.00    +0.202 HD
ATOM     11  H   UNL     1      -1.595   5.209 -23.988  0.00  0.00    +0.202 HD
ATOM     12  C   UNL     1       0.259   4.890 -23.372  0.00  0.00    +0.095 C 
ATOM     13  C   UNL     1      -0.291   3.912 -22.803  0.00  0.00    -0.007 C 
ATOM     14  C   UNL     1      -1.519   3.963 -22.522  0.00  0.00    +0.006 C 
ATOM     15  C   UNL     1      -2.069   2.998 -21.960  0.00  0.00    -0.000 C 
ATOM     16  C   UNL     1      -1.406   1.969 -21.668  0.00  0.00    +0.018 C 
ATOM     17  C   UNL     1      -0.192   1.918 -21.946  0.00  0.00    +0.212 C 
ATOM     18  O   UNL     1       1.078   1.115 -21.905  0.00  0.00    -0.480 OA
ATOM     19  C   UNL     1       1.472   4.841 -23.650  0.00  0.00    +0.094 C 
ATOM     20  C   UNL     1       2.249   1.817 -22.505  0.00  0.00    +0.167 A 
ENDROOT
BRANCH   1  22
ATOM     21  C   UNL     1       4.560   0.573 -21.335  0.00  0.00    +0.277 C 
ATOM     22  O   UNL     1       4.148   0.743 -22.499  0.00  0.00    -0.491 OA
ENDBRANCH   1  22
TORSDOF 1
ENDMDL
MODEL 7
REMARK VINA RESULT:    -9.217      1.952      4.848
REMARK INTER + INTRA:          -9.884
REMARK INTER:                  -9.755
REMARK INTRA:                  -0.128
REMARK UNBOUND:                -0.128
REMARK  Name = ZINC000096316327
REMARK  2 active torsions:
REMARK  status: ('A' for Active; 'I' for Inactive)
REMARK    1  A    between atoms: C_1  and  O_2
REMARK    2  A    between atoms: O_2  and  C_3
REMARK                            x       y       z     vdW  Elec       q    Type
REMARK                         _______ _______ _______ _____ _____    ______ ____
ROOT
ATOM      1  C   UNL     1      -3.097   2.977 -21.904  0.00  0.00    +0.162 A 
ATOM      2  C   UNL     1      -3.811   3.410 -22.846  0.00  0.00    +0.050 A 
ATOM      3  C   UNL     1      -3.316   3.604 -23.973  0.00  0.00    +0.008 A 
ATOM      4  C   UNL     1      -2.109   3.371 -24.171  0.00  0.00    -0.034 A 
ATOM      5  C   UNL     1      -1.382   2.941 -23.246  0.00  0.00    +0.016 A 
ATOM      6  C   UNL     1      -0.175   2.707 -23.444  0.00  0.00    +0.071 C 
ATOM      7  C   UNL     1       1.207   2.408 -23.554  0.00  0.00    +0.071 C 
ATOM      8  C   UNL     1       1.793   2.618 -24.812  0.00  0.00    +0.131 C 
ATOM      9  N   UNL     1       0.965   3.100 -25.838  0.00  0.00    +0.233 N 
ATOM     10  H   UNL     1       0.946   2.356 -26.536  0.00  0.00    +0.202 HD
ATOM     11  H   UNL     1       1.360   3.984 -26.164  0.00  0.00    +0.202 HD
ATOM     12  C   UNL     1      -0.393   3.334 -25.512  0.00  0.00    +0.095 C 
ATOM     13  C   UNL     1       0.321   2.902 -24.571  0.00  0.00    -0.007 C 
ATOM     14  C   UNL     1       1.543   2.666 -24.771  0.00  0.00    +0.006 C 
ATOM     15  C   UNL     1       2.255   2.239 -23.844  0.00  0.00    -0.000 C 
ATOM     16  C   UNL     1       1.762   2.039 -22.703  0.00  0.00    +0.018 C 
ATOM     17  C   UNL     1       0.554   2.273 -22.505  0.00  0.00    +0.212 C 
ATOM     18  O   UNL     1      -0.586   2.272 -21.523  0.00  0.00    -0.480 OA
ATOM     19  C   UNL     1      -1.601   3.567 -25.314  0.00  0.00    +0.094 C 
ATOM     20  C   UNL     1      -1.875   2.742 -22.105  0.00  0.00    +0.167 A 
ENDROOT
BRANCH   1  22
ATOM     21  C   UNL     1      -3.333   3.554 -19.828  0.00  0.00    +0.277 C 
ATOM     22  O   UNL     1      -3.600   2.782 -20.768  0.00  0.00    -0.491 OA
ENDBRANCH   1  22
TORSDOF 1
ENDMDL
MODEL 8
REMARK VINA RESULT:    -9.164      2.679      5.874
REMARK INTER + INTRA:          -9.828
REMARK INTER:                  -9.690
REMARK INTRA:                  -0.138
REMARK UNBOUND:                -0.128
REMARK  Name = ZINC000096316327
REMARK  2 active torsions:
REMARK  status: ('A' for Active; 'I' for Inactive)
REMARK    1  A    between atoms: C_1  and  O_2
REMARK    2  A    between atoms: O_2  and  C_3
REMARK                            x       y       z     vdW  Elec       q    Type
REMARK                         _______ _______ _______ _____ _____    ______ ____
ROOT
ATOM      1  C   UNL     1      -1.779   3.132 -22.920  0.00  0.00    +0.162 A 
ATOM      2  C   UNL     1      -1.774   4.337 -23.286  0.00  0.00    +0.050 A 
ATOM      3  C   UNL     1      -0.696   4.939 -23.456  0.00  0.00    +0.008 A 
ATOM      4  C   UNL     1       0.383   4.348 -23.266  0.00  0.00    -0.034 A 
ATOM      5  C   UNL     1       0.400   3.150 -22.902  0.00  0.00    +0.016 A 
ATOM      6  C   UNL     1       1.479   2.559 -22.711  0.00  0.00    +0.071 C 
ATOM      7  C   UNL     1       2.644   1.789 -22.465  0.00  0.00    +0.071 C 
ATOM      8  C   UNL     1       3.873   2.440 -22.649  0.00  0.00    +0.131 C 
ATOM      9  N   UNL     1       3.839   3.783 -23.057  0.00  0.00    +0.233 N 
ATOM     10  H   UNL     1       4.274   3.792 -23.980  0.00  0.00    +0.202 HD
ATOM     11  H   UNL     1       4.325   4.334 -22.348  0.00  0.00    +0.202 HD
ATOM     12  C   UNL     1       2.561   4.365 -23.247  0.00  0.00    +0.095 C 
ATOM     13  C   UNL     1       2.557   3.160 -22.882  0.00  0.00    -0.007 C 
ATOM     14  C   UNL     1       3.650   2.563 -22.689  0.00  0.00    +0.006 C 
ATOM     15  C   UNL     1       3.653   1.371 -22.328  0.00  0.00    -0.000 C 
ATOM     16  C   UNL     1       2.568   0.757 -22.153  0.00  0.00    +0.018 C 
ATOM     17  C   UNL     1       1.488   1.347 -22.344  0.00  0.00    +0.212 C 
ATOM     18  O   UNL     1      -0.014   1.263 -22.335  0.00  0.00    -0.480 OA
ATOM     19  C   UNL     1       1.482   4.955 -23.438  0.00  0.00    +0.094 C 
ATOM     20  C   UNL     1      -0.685   2.535 -22.728  0.00  0.00    +0.167 A 
ENDROOT
BRANCH   1  22
ATOM     21  C   UNL     1      -3.517   2.700 -21.700  0.00  0.00    +0.277 C 
ATOM     22  O   UNL     1      -2.868   2.528 -22.749  0.00  0.00    -0.491 OA
ENDBRANCH   1  22
TORSDOF 1
ENDMDL
MODEL 9
REMARK VINA RESULT:    -9.144      1.873      3.644
REMARK INTER + INTRA:          -9.807
REMARK INTER:                  -9.692
REMARK INTRA:                  -0.114
REMARK UNBOUND:                -0.128
REMARK  Name = ZINC000096316327
REMARK  2 active torsions:
REMARK  status: ('A' for Active; 'I' for Inactive)
REMARK    1  A    between atoms: C_1  and  O_2
REMARK    2  A    between atoms: O_2  and  C_3
REMARK                            x       y       z     vdW  Elec       q    Type
REMARK                         _______ _______ _______ _____ _____    ______ ____
ROOT
ATOM      1  C   UNL     1       2.646   2.473 -23.344  0.00  0.00    +0.162 A 
ATOM      2  C   UNL     1       2.810   1.806 -22.289  0.00  0.00    +0.050 A 
ATOM      3  C   UNL     1       1.835   1.516 -21.569  0.00  0.00    +0.008 A 
ATOM      4  C   UNL     1       0.691   1.885 -21.893  0.00  0.00    -0.034 A 
ATOM      5  C   UNL     1       0.506   2.549 -22.939  0.00  0.00    +0.016 A 
ATOM      6  C   UNL     1      -0.638   2.918 -23.263  0.00  0.00    +0.071 C 
ATOM      7  C   UNL     1      -1.891   3.390 -23.728  0.00  0.00    +0.071 C 
ATOM      8  C   UNL     1      -3.009   3.078 -22.938  0.00  0.00    +0.131 C 
ATOM      9  N   UNL     1      -2.786   2.333 -21.769  0.00  0.00    +0.233 N 
ATOM     10  H   UNL     1      -3.280   1.453 -21.916  0.00  0.00    +0.202 HD
ATOM     11  H   UNL     1      -3.122   2.888 -20.981  0.00  0.00    +0.202 HD
ATOM     12  C   UNL     1      -1.448   1.962 -21.489  0.00  0.00    +0.095 C 
ATOM     13  C   UNL     1      -1.613   2.628 -22.544  0.00  0.00    -0.007 C 
ATOM     14  C   UNL     1      -2.772   3.001 -22.871  0.00  0.00    +0.006 C 
ATOM     15  C   UNL     1      -2.942   3.661 -23.913  0.00  0.00    -0.000 C 
ATOM     16  C   UNL     1      -1.962   3.958 -24.645  0.00  0.00    +0.018 C 
ATOM     17  C   UNL     1      -0.817   3.589 -24.322  0.00  0.00    +0.212 C 
ATOM     18  O   UNL     1       0.648   3.576 -24.664  0.00  0.00    -0.480 OA
ATOM     19  C   UNL     1      -0.304   1.592 -21.165  0.00  0.00    +0.094 C 
ATOM     20  C   UNL     1       1.486   2.846 -23.671  0.00  0.00    +0.167 A 
ENDROOT
BRANCH   1  22
ATOM     21  C   UNL     1       4.691   3.162 -23.547  0.00  0.00    +0.277 C 
ATOM     22  O   UNL     1       3.631   2.764 -24.067  0.00  0.00    -0.491 OA
ENDBRANCH   1  22
TORSDOF 1
ENDMDL
