MODEL 1
REMARK VINA RESULT:    -9.905      0.000      0.000
REMARK INTER + INTRA:         -10.484
REMARK INTER:                 -10.484
REMARK INTRA:                   0.000
REMARK UNBOUND:                 0.000
REMARK  Name = ZINC000004104695
REMARK  6 active torsions:
REMARK  status: ('A' for Active; 'I' for Inactive)
REMARK    1  A    between atoms: C_1  and  C_2
REMARK    2  A    between atoms: C_2  and  C_3
REMARK    3  A    between atoms: C_9  and  C_10
REMARK    4  A    between atoms: C_9  and  O_11
REMARK    5  A    between atoms: C_12  and  C_13
REMARK    6  A    between atoms: C_12  and  O_14
REMARK                            x       y       z     vdW  Elec       q    Type
REMARK                         _______ _______ _______ _____ _____    ______ ____
ROOT
ATOM      1  C   UNL     1       0.004   2.201 -22.987  0.00  0.00    +0.011 C 
ATOM      2  C   UNL     1      -1.018   2.294 -22.189  0.00  0.00    -0.028 C 
ATOM      3  C   UNL     1      -1.912   2.746 -23.017  0.00  0.00    +0.005 C 
ATOM      4  C   UNL     1      -2.664   3.191 -23.979  0.00  0.00    +0.030 C 
ATOM      5  C   UNL     1      -3.918   3.532 -23.937  0.00  0.00    +0.027 C 
ATOM      6  C   UNL     1      -4.729   3.513 -22.920  0.00  0.00    +0.066 C 
ATOM      7  C   UNL     1      -4.486   3.147 -21.696  0.00  0.00    +0.035 C 
ATOM      8  C   UNL     1      -3.373   2.711 -21.186  0.00  0.00    +0.007 C 
ATOM      9  C   UNL     1      -5.481   3.957 -23.882  0.00  0.00    +0.041 C 
ATOM     10  C   UNL     1      -4.271   3.920 -25.126  0.00  0.00    +0.009 C 
ATOM     11  C   UNL     1      -3.234   3.819 -25.904  0.00  0.00    +0.035 C 
ATOM     12  C   UNL     1      -2.242   3.368 -25.196  0.00  0.00    +0.067 C 
ATOM     13  C   UNL     1      -1.112   2.936 -24.722  0.00  0.00    +0.041 C 
ATOM     14  C   UNL     1      -0.479   1.874 -21.082  0.00  0.00    +0.011 C 
ATOM     15  C   UNL     1      -2.227   2.532 -21.775  0.00  0.00    -0.001 C 
ENDROOT
BRANCH   6  16
ATOM     16  O   UNL     1      -5.875   3.691 -22.332  0.00  0.00    -0.389 OA
ATOM     17  H   UNL     1      -5.776   3.549 -21.379  0.00  0.00    +0.210 HD
ENDBRANCH   6  16
BRANCH  12  18
ATOM     18  O   UNL     1      -1.583   3.455 -26.313  0.00  0.00    -0.389 OA
ATOM     19  H   UNL     1      -1.510   4.387 -26.574  0.00  0.00    +0.210 HD
ENDBRANCH  12  18
TORSDOF 2
ENDMDL
MODEL 2
REMARK VINA RESULT:    -9.639      1.097      3.213
REMARK INTER + INTRA:         -10.202
REMARK INTER:                 -10.202
REMARK INTRA:                   0.000
REMARK UNBOUND:                 0.000
REMARK  Name = ZINC000004104695
REMARK  6 active torsions:
REMARK  status: ('A' for Active; 'I' for Inactive)
REMARK    1  A    between atoms: C_1  and  C_2
REMARK    2  A    between atoms: C_2  and  C_3
REMARK    3  A    between atoms: C_9  and  C_10
REMARK    4  A    between atoms: C_9  and  O_11
REMARK    5  A    between atoms: C_12  and  C_13
REMARK    6  A    between atoms: C_12  and  O_14
REMARK                            x       y       z     vdW  Elec       q    Type
REMARK                         _______ _______ _______ _____ _____    ______ ____
ROOT
ATOM      1  C   UNL     1      -0.702   2.079 -21.719  0.00  0.00    +0.011 C 
ATOM      2  C   UNL     1      -0.754   2.488 -22.951  0.00  0.00    -0.028 C 
ATOM      3  C   UNL     1      -2.009   2.815 -23.029  0.00  0.00    +0.005 C 
ATOM      4  C   UNL     1      -3.276   3.086 -22.921  0.00  0.00    +0.030 C 
ATOM      5  C   UNL     1      -4.082   3.569 -23.820  0.00  0.00    +0.027 C 
ATOM      6  C   UNL     1      -3.818   3.901 -25.050  0.00  0.00    +0.066 C 
ATOM      7  C   UNL     1      -2.685   3.832 -25.683  0.00  0.00    +0.035 C 
ATOM      8  C   UNL     1      -1.535   3.414 -25.244  0.00  0.00    +0.007 C 
ATOM      9  C   UNL     1      -5.085   4.172 -24.942  0.00  0.00    +0.041 C 
ATOM     10  C   UNL     1      -5.261   3.681 -23.285  0.00  0.00    +0.009 C 
ATOM     11  C   UNL     1      -5.184   3.267 -22.055  0.00  0.00    +0.035 C 
ATOM     12  C   UNL     1      -3.959   2.899 -21.830  0.00  0.00    +0.067 C 
ATOM     13  C   UNL     1      -2.825   2.474 -21.357  0.00  0.00    +0.041 C 
ATOM     14  C   UNL     1       0.485   2.303 -23.303  0.00  0.00    +0.011 C 
ATOM     15  C   UNL     1      -1.235   2.961 -24.062  0.00  0.00    -0.001 C 
ENDROOT
BRANCH   6  16
ATOM     16  O   UNL     1      -4.119   4.354 -26.230  0.00  0.00    -0.389 OA
ATOM     17  H   UNL     1      -5.083   4.409 -26.320  0.00  0.00    +0.210 HD
ENDBRANCH   6  16
BRANCH  12  18
ATOM     18  O   UNL     1      -4.403   2.623 -20.641  0.00  0.00    -0.389 OA
ATOM     19  H   UNL     1      -4.409   3.431 -20.103  0.00  0.00    +0.210 HD
ENDBRANCH  12  18
TORSDOF 2
ENDMDL
MODEL 3
REMARK VINA RESULT:    -9.565      1.218      2.077
REMARK INTER + INTRA:         -10.125
REMARK INTER:                 -10.125
REMARK INTRA:                   0.000
REMARK UNBOUND:                 0.000
REMARK  Name = ZINC000004104695
REMARK  6 active torsions:
REMARK  status: ('A' for Active; 'I' for Inactive)
REMARK    1  A    between atoms: C_1  and  C_2
REMARK    2  A    between atoms: C_2  and  C_3
REMARK    3  A    between atoms: C_9  and  C_10
REMARK    4  A    between atoms: C_9  and  O_11
REMARK    5  A    between atoms: C_12  and  C_13
REMARK    6  A    between atoms: C_12  and  O_14
REMARK                            x       y       z     vdW  Elec       q    Type
REMARK                         _______ _______ _______ _____ _____    ______ ____
ROOT
ATOM      1  C   UNL     1      -0.625   3.630 -25.163  0.00  0.00    +0.011 C 
ATOM      2  C   UNL     1      -0.765   3.143 -23.966  0.00  0.00    -0.028 C 
ATOM      3  C   UNL     1      -2.045   3.300 -23.806  0.00  0.00    +0.005 C 
ATOM      4  C   UNL     1      -3.324   3.532 -23.825  0.00  0.00    +0.030 C 
ATOM      5  C   UNL     1      -4.206   3.292 -22.900  0.00  0.00    +0.027 C 
ATOM      6  C   UNL     1      -4.025   2.760 -21.727  0.00  0.00    +0.066 C 
ATOM      7  C   UNL     1      -2.919   2.337 -21.190  0.00  0.00    +0.035 C 
ATOM      8  C   UNL     1      -1.721   2.341 -21.693  0.00  0.00    +0.007 C 
ATOM      9  C   UNL     1      -5.304   2.993 -21.746  0.00  0.00    +0.041 C 
ATOM     10  C   UNL     1      -5.365   3.683 -23.338  0.00  0.00    +0.009 C 
ATOM     11  C   UNL     1      -5.200   4.165 -24.534  0.00  0.00    +0.035 C 
ATOM     12  C   UNL     1      -3.940   4.072 -24.835  0.00  0.00    +0.067 C 
ATOM     13  C   UNL     1      -2.755   4.092 -25.370  0.00  0.00    +0.041 C 
ATOM     14  C   UNL     1       0.468   2.817 -23.710  0.00  0.00    +0.011 C 
ATOM     15  C   UNL     1      -1.332   2.770 -22.858  0.00  0.00    -0.001 C 
ENDROOT
BRANCH   6  16
ATOM     16  O   UNL     1      -4.415   2.332 -20.563  0.00  0.00    -0.389 OA
ATOM     17  H   UNL     1      -3.853   2.715 -19.872  0.00  0.00    +0.210 HD
ENDBRANCH   6  16
BRANCH  12  18
ATOM     18  O   UNL     1      -4.306   4.615 -25.957  0.00  0.00    -0.389 OA
ATOM     19  H   UNL     1      -4.304   5.581 -25.864  0.00  0.00    +0.210 HD
ENDBRANCH  12  18
TORSDOF 2
ENDMDL
MODEL 4
REMARK VINA RESULT:    -9.413      1.429      3.497
REMARK INTER + INTRA:          -9.964
REMARK INTER:                  -9.964
REMARK INTRA:                   0.000
REMARK UNBOUND:                 0.000
REMARK  Name = ZINC000004104695
REMARK  6 active torsions:
REMARK  status: ('A' for Active; 'I' for Inactive)
REMARK    1  A    between atoms: C_1  and  C_2
REMARK    2  A    between atoms: C_2  and  C_3
REMARK    3  A    between atoms: C_9  and  C_10
REMARK    4  A    between atoms: C_9  and  O_11
REMARK    5  A    between atoms: C_12  and  C_13
REMARK    6  A    between atoms: C_12  and  O_14
REMARK                            x       y       z     vdW  Elec       q    Type
REMARK                         _______ _______ _______ _____ _____    ______ ____
ROOT
ATOM      1  C   UNL     1      -5.430   3.306 -22.125  0.00  0.00    +0.011 C 
ATOM      2  C   UNL     1      -4.236   2.929 -21.778  0.00  0.00    -0.028 C 
ATOM      3  C   UNL     1      -3.607   3.107 -22.900  0.00  0.00    +0.005 C 
ATOM      4  C   UNL     1      -3.148   3.346 -24.093  0.00  0.00    +0.030 C 
ATOM      5  C   UNL     1      -1.937   3.195 -24.542  0.00  0.00    +0.027 C 
ATOM      6  C   UNL     1      -0.886   2.767 -23.907  0.00  0.00    +0.066 C 
ATOM      7  C   UNL     1      -0.785   2.386 -22.669  0.00  0.00    +0.035 C 
ATOM      8  C   UNL     1      -1.712   2.337 -21.758  0.00  0.00    +0.007 C 
ATOM      9  C   UNL     1      -0.427   3.006 -25.100  0.00  0.00    +0.041 C 
ATOM     10  C   UNL     1      -1.923   3.553 -25.791  0.00  0.00    +0.009 C 
ATOM     11  C   UNL     1      -3.126   3.925 -26.115  0.00  0.00    +0.035 C 
ATOM     12  C   UNL     1      -3.883   3.797 -25.067  0.00  0.00    +0.067 C 
ATOM     13  C   UNL     1      -4.835   3.762 -24.182  0.00  0.00    +0.041 C 
ATOM     14  C   UNL     1      -4.451   2.619 -20.533  0.00  0.00    +0.011 C 
ATOM     15  C   UNL     1      -2.968   2.659 -21.862  0.00  0.00    -0.001 C 
ENDROOT
BRANCH   6  16
ATOM     16  O   UNL     1       0.370   2.447 -23.805  0.00  0.00    -0.389 OA
ATOM     17  H   UNL     1       0.798   3.019 -23.150  0.00  0.00    +0.210 HD
ENDBRANCH   6  16
BRANCH  12  18
ATOM     18  O   UNL     1      -4.817   4.242 -25.853  0.00  0.00    -0.389 OA
ATOM     19  H   UNL     1      -5.684   3.980 -25.505  0.00  0.00    +0.210 HD
ENDBRANCH  12  18
TORSDOF 2
ENDMDL
MODEL 5
REMARK VINA RESULT:    -9.350      1.309      4.455
REMARK INTER + INTRA:          -9.897
REMARK INTER:                  -9.897
REMARK INTRA:                   0.000
REMARK UNBOUND:                 0.000
REMARK  Name = ZINC000004104695
REMARK  6 active torsions:
REMARK  status: ('A' for Active; 'I' for Inactive)
REMARK    1  A    between atoms: C_1  and  C_2
REMARK    2  A    between atoms: C_2  and  C_3
REMARK    3  A    between atoms: C_9  and  C_10
REMARK    4  A    between atoms: C_9  and  O_11
REMARK    5  A    between atoms: C_12  and  C_13
REMARK    6  A    between atoms: C_12  and  O_14
REMARK                            x       y       z     vdW  Elec       q    Type
REMARK                         _______ _______ _______ _____ _____    ______ ____
ROOT
ATOM      1  C   UNL     1      -4.725   3.810 -25.762  0.00  0.00    +0.011 C 
ATOM      2  C   UNL     1      -3.462   3.534 -25.633  0.00  0.00    -0.028 C 
ATOM      3  C   UNL     1      -3.395   3.372 -24.346  0.00  0.00    +0.005 C 
ATOM      4  C   UNL     1      -3.518   3.249 -23.057  0.00  0.00    +0.030 C 
ATOM      5  C   UNL     1      -2.605   2.959 -22.179  0.00  0.00    +0.027 C 
ATOM      6  C   UNL     1      -1.341   2.720 -22.373  0.00  0.00    +0.066 C 
ATOM      7  C   UNL     1      -0.680   2.712 -23.492  0.00  0.00    +0.035 C 
ATOM      8  C   UNL     1      -1.118   2.941 -24.694  0.00  0.00    +0.007 C 
ATOM      9  C   UNL     1      -1.465   2.597 -21.085  0.00  0.00    +0.041 C 
ATOM     10  C   UNL     1      -3.165   2.940 -21.007  0.00  0.00    +0.009 C 
ATOM     11  C   UNL     1      -4.426   3.218 -21.161  0.00  0.00    +0.035 C 
ATOM     12  C   UNL     1      -4.644   3.409 -22.427  0.00  0.00    +0.067 C 
ATOM     13  C   UNL     1      -5.118   3.644 -23.614  0.00  0.00    +0.041 C 
ATOM     14  C   UNL     1      -3.089   3.600 -26.878  0.00  0.00    +0.011 C 
ATOM     15  C   UNL     1      -2.327   3.235 -25.074  0.00  0.00    -0.001 C 
ENDROOT
BRANCH   6  16
ATOM     16  O   UNL     1      -0.133   2.427 -21.993  0.00  0.00    -0.389 OA
ATOM     17  H   UNL     1       0.169   1.631 -22.458  0.00  0.00    +0.210 HD
ENDBRANCH   6  16
BRANCH  12  18
ATOM     18  O   UNL     1      -5.869   3.618 -22.046  0.00  0.00    -0.389 OA
ATOM     19  H   UNL     1      -6.281   2.773 -21.805  0.00  0.00    +0.210 HD
ENDBRANCH  12  18
TORSDOF 2
ENDMDL
MODEL 6
REMARK VINA RESULT:    -9.334      1.348      3.393
REMARK INTER + INTRA:          -9.880
REMARK INTER:                  -9.880
REMARK INTRA:                   0.000
REMARK UNBOUND:                 0.000
REMARK  Name = ZINC000004104695
REMARK  6 active torsions:
REMARK  status: ('A' for Active; 'I' for Inactive)
REMARK    1  A    between atoms: C_1  and  C_2
REMARK    2  A    between atoms: C_2  and  C_3
REMARK    3  A    between atoms: C_9  and  C_10
REMARK    4  A    between atoms: C_9  and  O_11
REMARK    5  A    between atoms: C_12  and  C_13
REMARK    6  A    between atoms: C_12  and  O_14
REMARK                            x       y       z     vdW  Elec       q    Type
REMARK                         _______ _______ _______ _____ _____    ______ ____
ROOT
ATOM      1  C   UNL     1      -1.348   3.367 -25.849  0.00  0.00    +0.011 C 
ATOM      2  C   UNL     1      -2.626   3.559 -25.714  0.00  0.00    -0.028 C 
ATOM      3  C   UNL     1      -2.749   3.375 -24.433  0.00  0.00    +0.005 C 
ATOM      4  C   UNL     1      -2.680   3.158 -23.153  0.00  0.00    +0.030 C 
ATOM      5  C   UNL     1      -3.638   3.178 -22.274  0.00  0.00    +0.027 C 
ATOM      6  C   UNL     1      -4.902   3.419 -22.460  0.00  0.00    +0.066 C 
ATOM      7  C   UNL     1      -5.520   3.700 -23.568  0.00  0.00    +0.035 C 
ATOM      8  C   UNL     1      -5.027   3.809 -24.766  0.00  0.00    +0.007 C 
ATOM      9  C   UNL     1      -4.833   3.203 -21.180  0.00  0.00    +0.041 C 
ATOM     10  C   UNL     1      -3.124   2.906 -21.112  0.00  0.00    +0.009 C 
ATOM     11  C   UNL     1      -1.847   2.718 -21.273  0.00  0.00    +0.035 C 
ATOM     12  C   UNL     1      -1.573   2.874 -22.533  0.00  0.00    +0.067 C 
ATOM     13  C   UNL     1      -1.044   2.975 -23.717  0.00  0.00    +0.041 C 
ATOM     14  C   UNL     1      -2.948   3.810 -26.949  0.00  0.00    +0.011 C 
ATOM     15  C   UNL     1      -3.793   3.664 -25.151  0.00  0.00    -0.001 C 
ENDROOT
BRANCH   6  16
ATOM     16  O   UNL     1      -6.135   3.564 -22.074  0.00  0.00    -0.389 OA
ATOM     17  H   UNL     1      -6.164   3.665 -21.110  0.00  0.00    +0.210 HD
ENDBRANCH   6  16
BRANCH  12  18
ATOM     18  O   UNL     1      -0.356   2.611 -22.162  0.00  0.00    -0.389 OA
ATOM     19  H   UNL     1      -0.308   1.699 -21.833  0.00  0.00    +0.210 HD
ENDBRANCH  12  18
TORSDOF 2
ENDMDL
MODEL 7
REMARK VINA RESULT:    -9.168      1.487      2.605
REMARK INTER + INTRA:          -9.704
REMARK INTER:                  -9.704
REMARK INTRA:                   0.000
REMARK UNBOUND:                 0.000
REMARK  Name = ZINC000004104695
REMARK  6 active torsions:
REMARK  status: ('A' for Active; 'I' for Inactive)
REMARK    1  A    between atoms: C_1  and  C_2
REMARK    2  A    between atoms: C_2  and  C_3
REMARK    3  A    between atoms: C_9  and  C_10
REMARK    4  A    between atoms: C_9  and  O_11
REMARK    5  A    between atoms: C_12  and  C_13
REMARK    6  A    between atoms: C_12  and  O_14
REMARK                            x       y       z     vdW  Elec       q    Type
REMARK                         _______ _______ _______ _____ _____    ______ ____
ROOT
ATOM      1  C   UNL     1      -2.131   3.015 -20.769  0.00  0.00    +0.011 C 
ATOM      2  C   UNL     1      -3.274   3.224 -21.350  0.00  0.00    -0.028 C 
ATOM      3  C   UNL     1      -2.886   3.320 -22.587  0.00  0.00    +0.005 C 
ATOM      4  C   UNL     1      -2.318   3.385 -23.754  0.00  0.00    +0.030 C 
ATOM      5  C   UNL     1      -2.869   3.588 -24.914  0.00  0.00    +0.027 C 
ATOM      6  C   UNL     1      -4.126   3.776 -25.192  0.00  0.00    +0.066 C 
ATOM      7  C   UNL     1      -5.140   3.808 -24.380  0.00  0.00    +0.035 C 
ATOM      8  C   UNL     1      -5.149   3.659 -23.089  0.00  0.00    +0.007 C 
ATOM      9  C   UNL     1      -3.558   3.842 -26.360  0.00  0.00    +0.041 C 
ATOM     10  C   UNL     1      -1.931   3.577 -25.814  0.00  0.00    +0.009 C 
ATOM     11  C   UNL     1      -0.799   3.366 -25.209  0.00  0.00    +0.035 C 
ATOM     12  C   UNL     1      -1.038   3.248 -23.938  0.00  0.00    +0.067 C 
ATOM     13  C   UNL     1      -1.008   3.095 -22.647  0.00  0.00    +0.041 C 
ATOM     14  C   UNL     1      -4.061   3.202 -20.315  0.00  0.00    +0.011 C 
ATOM     15  C   UNL     1      -4.145   3.442 -22.291  0.00  0.00    -0.001 C 
ENDROOT
BRANCH   6  16
ATOM     16  O   UNL     1      -5.128   3.993 -25.990  0.00  0.00    -0.389 OA
ATOM     17  H   UNL     1      -5.522   3.147 -26.254  0.00  0.00    +0.210 HD
ENDBRANCH   6  16
BRANCH  12  18
ATOM     18  O   UNL     1       0.248   3.079 -23.850  0.00  0.00    -0.389 OA
ATOM     19  H   UNL     1       0.435   2.168 -23.572  0.00  0.00    +0.210 HD
ENDBRANCH  12  18
TORSDOF 2
ENDMDL
MODEL 8
REMARK VINA RESULT:    -9.065      1.606      4.146
REMARK INTER + INTRA:          -9.595
REMARK INTER:                  -9.595
REMARK INTRA:                   0.000
REMARK UNBOUND:                 0.000
REMARK  Name = ZINC000004104695
REMARK  6 active torsions:
REMARK  status: ('A' for Active; 'I' for Inactive)
REMARK    1  A    between atoms: C_1  and  C_2
REMARK    2  A    between atoms: C_2  and  C_3
REMARK    3  A    between atoms: C_9  and  C_10
REMARK    4  A    between atoms: C_9  and  O_11
REMARK    5  A    between atoms: C_12  and  C_13
REMARK    6  A    between atoms: C_12  and  O_14
REMARK                            x       y       z     vdW  Elec       q    Type
REMARK                         _______ _______ _______ _____ _____    ______ ____
ROOT
ATOM      1  C   UNL     1      -4.242   2.675 -20.933  0.00  0.00    +0.011 C 
ATOM      2  C   UNL     1      -4.410   3.053 -22.165  0.00  0.00    -0.028 C 
ATOM      3  C   UNL     1      -3.191   2.953 -22.602  0.00  0.00    +0.005 C 
ATOM      4  C   UNL     1      -1.926   2.794 -22.858  0.00  0.00    +0.030 C 
ATOM      5  C   UNL     1      -1.294   2.994 -23.977  0.00  0.00    +0.027 C 
ATOM      6  C   UNL     1      -1.772   3.403 -25.115  0.00  0.00    +0.066 C 
ATOM      7  C   UNL     1      -2.999   3.712 -25.416  0.00  0.00    +0.035 C 
ATOM      8  C   UNL     1      -4.050   3.689 -24.653  0.00  0.00    +0.007 C 
ATOM      9  C   UNL     1      -0.508   3.244 -25.372  0.00  0.00    +0.041 C 
ATOM     10  C   UNL     1      -0.040   2.711 -23.787  0.00  0.00    +0.009 C 
ATOM     11  C   UNL     1       0.103   2.336 -22.550  0.00  0.00    +0.035 C 
ATOM     12  C   UNL     1      -1.061   2.387 -21.977  0.00  0.00    +0.067 C 
ATOM     13  C   UNL     1      -2.091   2.352 -21.184  0.00  0.00    +0.041 C 
ATOM     14  C   UNL     1      -5.690   3.285 -22.156  0.00  0.00    +0.011 C 
ATOM     15  C   UNL     1      -4.135   3.351 -23.400  0.00  0.00    -0.001 C 
ENDROOT
BRANCH   6  16
ATOM     16  O   UNL     1      -1.686   3.740 -26.368  0.00  0.00    -0.389 OA
ATOM     17  H   UNL     1      -1.367   4.653 -26.436  0.00  0.00    +0.210 HD
ENDBRANCH   6  16
BRANCH  12  18
ATOM     18  O   UNL     1      -0.413   1.973 -20.929  0.00  0.00    -0.389 OA
ATOM     19  H   UNL     1      -0.932   2.164 -20.132  0.00  0.00    +0.210 HD
ENDBRANCH  12  18
TORSDOF 2
ENDMDL
MODEL 9
REMARK VINA RESULT:    -8.934      2.083      5.039
REMARK INTER + INTRA:          -9.457
REMARK INTER:                  -9.457
REMARK INTRA:                   0.000
REMARK UNBOUND:                 0.000
REMARK  Name = ZINC000004104695
REMARK  6 active torsions:
REMARK  status: ('A' for Active; 'I' for Inactive)
REMARK    1  A    between atoms: C_1  and  C_2
REMARK    2  A    between atoms: C_2  and  C_3
REMARK    3  A    between atoms: C_9  and  C_10
REMARK    4  A    between atoms: C_9  and  O_11
REMARK    5  A    between atoms: C_12  and  C_13
REMARK    6  A    between atoms: C_12  and  O_14
REMARK                            x       y       z     vdW  Elec       q    Type
REMARK                         _______ _______ _______ _____ _____    ______ ____
ROOT
ATOM      1  C   UNL     1      -3.083   2.522 -21.768  0.00  0.00    +0.011 C 
ATOM      2  C   UNL     1      -2.812   3.000 -22.946  0.00  0.00    -0.028 C 
ATOM      3  C   UNL     1      -1.538   2.751 -23.005  0.00  0.00    +0.005 C 
ATOM      4  C   UNL     1      -0.285   2.425 -22.886  0.00  0.00    +0.030 C 
ATOM      5  C   UNL     1       0.683   2.602 -23.735  0.00  0.00    +0.027 C 
ATOM      6  C   UNL     1       0.636   3.150 -24.914  0.00  0.00    +0.066 C 
ATOM      7  C   UNL     1      -0.389   3.654 -25.534  0.00  0.00    +0.035 C 
ATOM      8  C   UNL     1      -1.621   3.736 -25.129  0.00  0.00    +0.007 C 
ATOM      9  C   UNL     1       1.889   2.824 -24.796  0.00  0.00    +0.041 C 
ATOM     10  C   UNL     1       1.772   2.127 -23.210  0.00  0.00    +0.009 C 
ATOM     11  C   UNL     1       1.477   1.656 -22.034  0.00  0.00    +0.035 C 
ATOM     12  C   UNL     1       0.207   1.840 -21.834  0.00  0.00    +0.067 C 
ATOM     13  C   UNL     1      -1.015   1.904 -21.395  0.00  0.00    +0.041 C 
ATOM     14  C   UNL     1      -3.994   3.416 -23.297  0.00  0.00    +0.011 C 
ATOM     15  C   UNL     1      -2.133   3.334 -24.003  0.00  0.00    -0.001 C 
ENDROOT
BRANCH   6  16
ATOM     16  O   UNL     1       1.148   3.551 -26.040  0.00  0.00    -0.389 OA
ATOM     17  H   UNL     1       1.276   4.512 -26.013  0.00  0.00    +0.210 HD
ENDBRANCH   6  16
BRANCH  12  18
ATOM     18  O   UNL     1       0.442   1.268 -20.691  0.00  0.00    -0.389 OA
ATOM     19  H   UNL     1       0.495   1.944 -19.997  0.00  0.00    +0.210 HD
ENDBRANCH  12  18
TORSDOF 2
ENDMDL
