MODEL 1
REMARK VINA RESULT:    -9.976      0.000      0.000
REMARK INTER + INTRA:         -11.286
REMARK INTER:                 -11.230
REMARK INTRA:                  -0.056
REMARK UNBOUND:                -0.144
REMARK  Name = ZINC000019632726
REMARK  5 active torsions:
REMARK  status: ('A' for Active; 'I' for Inactive)
REMARK    1  A    between atoms: C_1  and  O_2
REMARK    2  A    between atoms: O_2  and  C_3
REMARK    3  A    between atoms: C_8  and  O_9
REMARK    4  A    between atoms: O_9  and  C_10
REMARK    5  A    between atoms: N_21  and  C_22
REMARK                            x       y       z     vdW  Elec       q    Type
REMARK                         _______ _______ _______ _____ _____    ______ ____
ROOT
ATOM      1  C   UNL     1       4.785   1.893 -22.477  0.00  0.00    +0.162 A 
ATOM      2  C   UNL     1       4.022   2.428 -23.383  0.00  0.00    +0.054 A 
ATOM      3  C   UNL     1       2.739   2.505 -23.188  0.00  0.00    -0.028 A 
ATOM      4  C   UNL     1       2.219   2.046 -22.088  0.00  0.00    +0.025 A 
ATOM      5  C   UNL     1       0.936   2.123 -21.894  0.00  0.00    +0.168 C 
ATOM      6  C   UNL     1       0.172   2.659 -22.800  0.00  0.00    +0.115 C 
ATOM      7  C   UNL     1      -1.111   2.735 -22.605  0.00  0.00    -0.028 A 
ATOM      8  C   UNL     1      -1.630   2.276 -21.505  0.00  0.00    +0.008 A 
ATOM      9  C   UNL     1      -2.913   2.353 -21.311  0.00  0.00    +0.050 A 
ATOM     10  C   UNL     1      -3.677   2.889 -22.216  0.00  0.00    +0.167 A 
ATOM     11  C   UNL     1      -3.158   3.348 -23.316  0.00  0.00    +0.175 A 
ATOM     12  O   UNL     1      -4.121   3.826 -24.046  0.00  0.00    -0.452 OA
ATOM     13  C   UNL     1      -5.236   3.662 -23.398  0.00  0.00    +0.466 C 
ATOM     14  O   UNL     1      -4.961   3.083 -22.266  0.00  0.00    -0.453 OA
ATOM     15  C   UNL     1      -1.875   3.271 -23.510  0.00  0.00    +0.046 A 
ATOM     16  C   UNL     1      -1.355   3.729 -24.610  0.00  0.00    +0.171 C 
ATOM     17  N   UNL     1      -0.072   3.653 -24.805  0.00  0.00    +0.237 N 
ATOM     18  H   UNL     1       0.886   3.407 -24.556  0.00  0.00    +0.203 HD
ATOM     19  C   UNL     1       0.691   3.117 -23.899  0.00  0.00    +0.136 C 
ATOM     20  C   UNL     1       0.447   4.112 -25.905  0.00  0.00    +0.191 C 
ATOM     21  O   UNL     1       0.416   1.664 -20.794  0.00  0.00    -0.292 OA
ATOM     22  C   UNL     1       2.983   1.510 -21.183  0.00  0.00    +0.061 A 
ATOM     23  C   UNL     1       1.974   3.040 -24.094  0.00  0.00    +0.087 C 
ATOM     24  C   UNL     1       4.266   1.434 -21.378  0.00  0.00    +0.162 A 
ENDROOT
BRANCH   1  26
ATOM     25  C   UNL     1       6.763   2.899 -22.861  0.00  0.00    +0.277 C 
ATOM     26  O   UNL     1       6.068   1.816 -22.672  0.00  0.00    -0.491 OA
ENDBRANCH   1  26
BRANCH  24  27
ATOM     27  O   UNL     1       5.030   0.898 -20.472  0.00  0.00    -0.491 OA
ATOM     28  C   UNL     1       5.308  -0.371 -20.524  0.00  0.00    +0.277 C 
ENDBRANCH  24  27
TORSDOF 2
ENDMDL
MODEL 2
REMARK VINA RESULT:    -9.877      1.235      7.107
REMARK INTER + INTRA:         -11.176
REMARK INTER:                 -11.034
REMARK INTRA:                  -0.141
REMARK UNBOUND:                -0.144
REMARK  Name = ZINC000019632726
REMARK  5 active torsions:
REMARK  status: ('A' for Active; 'I' for Inactive)
REMARK    1  A    between atoms: C_1  and  O_2
REMARK    2  A    between atoms: O_2  and  C_3
REMARK    3  A    between atoms: C_8  and  O_9
REMARK    4  A    between atoms: O_9  and  C_10
REMARK    5  A    between atoms: N_21  and  C_22
REMARK                            x       y       z     vdW  Elec       q    Type
REMARK                         _______ _______ _______ _____ _____    ______ ____
ROOT
ATOM      1  C   UNL     1      -4.100   3.807 -23.808  0.00  0.00    +0.162 A 
ATOM      2  C   UNL     1      -3.006   3.648 -24.492  0.00  0.00    +0.054 A 
ATOM      3  C   UNL     1      -1.934   3.202 -23.908  0.00  0.00    -0.028 A 
ATOM      4  C   UNL     1      -1.955   2.916 -22.640  0.00  0.00    +0.025 A 
ATOM      5  C   UNL     1      -0.883   2.470 -22.055  0.00  0.00    +0.168 C 
ATOM      6  C   UNL     1       0.212   2.311 -22.739  0.00  0.00    +0.115 C 
ATOM      7  C   UNL     1       1.284   1.866 -22.155  0.00  0.00    -0.028 A 
ATOM      8  C   UNL     1       1.262   1.579 -20.887  0.00  0.00    +0.008 A 
ATOM      9  C   UNL     1       2.334   1.133 -20.302  0.00  0.00    +0.050 A 
ATOM     10  C   UNL     1       3.429   0.975 -20.986  0.00  0.00    +0.167 A 
ATOM     11  C   UNL     1       3.451   1.261 -22.253  0.00  0.00    +0.175 A 
ATOM     12  O   UNL     1       4.647   1.018 -22.700  0.00  0.00    -0.452 OA
ATOM     13  C   UNL     1       5.365   0.580 -21.708  0.00  0.00    +0.466 C 
ATOM     14  O   UNL     1       4.611   0.554 -20.648  0.00  0.00    -0.453 OA
ATOM     15  C   UNL     1       2.378   1.706 -22.837  0.00  0.00    +0.046 A 
ATOM     16  C   UNL     1       2.400   1.993 -24.106  0.00  0.00    +0.171 C 
ATOM     17  N   UNL     1       1.328   2.439 -24.690  0.00  0.00    +0.237 N 
ATOM     18  H   UNL     1       0.351   2.730 -24.729  0.00  0.00    +0.203 HD
ATOM     19  C   UNL     1       0.233   2.597 -24.006  0.00  0.00    +0.136 C 
ATOM     20  C   UNL     1       1.349   2.725 -25.958  0.00  0.00    +0.191 C 
ATOM     21  O   UNL     1      -0.904   2.183 -20.787  0.00  0.00    -0.292 OA
ATOM     22  C   UNL     1      -3.050   3.075 -21.956  0.00  0.00    +0.061 A 
ATOM     23  C   UNL     1      -0.839   3.043 -24.591  0.00  0.00    +0.087 C 
ATOM     24  C   UNL     1      -4.122   3.520 -22.541  0.00  0.00    +0.162 A 
ENDROOT
BRANCH   1  26
ATOM     25  C   UNL     1      -5.589   3.702 -25.495  0.00  0.00    +0.277 C 
ATOM     26  O   UNL     1      -5.172   4.252 -24.393  0.00  0.00    -0.491 OA
ENDBRANCH   1  26
BRANCH  24  27
ATOM     27  O   UNL     1      -5.217   3.679 -21.857  0.00  0.00    -0.491 OA
ATOM     28  C   UNL     1      -6.023   2.675 -21.677  0.00  0.00    +0.277 C 
ENDBRANCH  24  27
TORSDOF 2
ENDMDL
MODEL 3
REMARK VINA RESULT:    -8.959      2.622      3.879
REMARK INTER + INTRA:         -10.151
REMARK INTER:                  -9.922
REMARK INTRA:                  -0.228
REMARK UNBOUND:                -0.144
REMARK  Name = ZINC000019632726
REMARK  5 active torsions:
REMARK  status: ('A' for Active; 'I' for Inactive)
REMARK    1  A    between atoms: C_1  and  O_2
REMARK    2  A    between atoms: O_2  and  C_3
REMARK    3  A    between atoms: C_8  and  O_9
REMARK    4  A    between atoms: O_9  and  C_10
REMARK    5  A    between atoms: N_21  and  C_22
REMARK                            x       y       z     vdW  Elec       q    Type
REMARK                         _______ _______ _______ _____ _____    ______ ____
ROOT
ATOM      1  C   UNL     1       7.122   4.721 -22.860  0.00  0.00    +0.162 A 
ATOM      2  C   UNL     1       6.406   3.709 -23.252  0.00  0.00    +0.054 A 
ATOM      3  C   UNL     1       5.110   3.802 -23.278  0.00  0.00    -0.028 A 
ATOM      4  C   UNL     1       4.529   4.907 -22.913  0.00  0.00    +0.025 A 
ATOM      5  C   UNL     1       3.233   5.000 -22.940  0.00  0.00    +0.168 C 
ATOM      6  C   UNL     1       2.516   3.987 -23.332  0.00  0.00    +0.115 C 
ATOM      7  C   UNL     1       1.220   4.080 -23.358  0.00  0.00    -0.028 A 
ATOM      8  C   UNL     1       0.640   5.185 -22.994  0.00  0.00    +0.008 A 
ATOM      9  C   UNL     1      -0.657   5.278 -23.020  0.00  0.00    +0.050 A 
ATOM     10  C   UNL     1      -1.372   4.265 -23.412  0.00  0.00    +0.167 A 
ATOM     11  C   UNL     1      -0.793   3.161 -23.776  0.00  0.00    +0.175 A 
ATOM     12  O   UNL     1      -1.718   2.315 -24.119  0.00  0.00    -0.452 OA
ATOM     13  C   UNL     1      -2.871   2.897 -23.966  0.00  0.00    +0.466 C 
ATOM     14  O   UNL     1      -2.657   4.103 -23.528  0.00  0.00    -0.453 OA
ATOM     15  C   UNL     1       0.504   3.069 -23.749  0.00  0.00    +0.046 A 
ATOM     16  C   UNL     1       1.084   1.964 -24.114  0.00  0.00    +0.171 C 
ATOM     17  N   UNL     1       2.381   1.871 -24.088  0.00  0.00    +0.237 N 
ATOM     18  H   UNL     1       3.327   2.213 -23.923  0.00  0.00    +0.203 HD
ATOM     19  C   UNL     1       3.097   2.883 -23.696  0.00  0.00    +0.136 C 
ATOM     20  C   UNL     1       2.961   0.766 -24.452  0.00  0.00    +0.191 C 
ATOM     21  O   UNL     1       2.652   6.104 -22.576  0.00  0.00    -0.292 OA
ATOM     22  C   UNL     1       5.245   5.919 -22.522  0.00  0.00    +0.061 A 
ATOM     23  C   UNL     1       4.393   2.790 -23.670  0.00  0.00    +0.087 C 
ATOM     24  C   UNL     1       6.542   5.825 -22.496  0.00  0.00    +0.162 A 
ENDROOT
BRANCH   1  26
ATOM     25  C   UNL     1       9.062   4.217 -23.886  0.00  0.00    +0.277 C 
ATOM     26  O   UNL     1       8.418   4.628 -22.834  0.00  0.00    -0.491 OA
ENDBRANCH   1  26
BRANCH  24  27
ATOM     27  O   UNL     1       7.258   6.838 -22.104  0.00  0.00    -0.491 OA
ATOM     28  C   UNL     1       7.004   7.413 -20.966  0.00  0.00    +0.277 C 
ENDBRANCH  24  27
TORSDOF 2
ENDMDL
MODEL 4
REMARK VINA RESULT:    -8.545      1.625      3.147
REMARK INTER + INTRA:          -9.688
REMARK INTER:                  -9.531
REMARK INTRA:                  -0.157
REMARK UNBOUND:                -0.144
REMARK  Name = ZINC000019632726
REMARK  5 active torsions:
REMARK  status: ('A' for Active; 'I' for Inactive)
REMARK    1  A    between atoms: C_1  and  O_2
REMARK    2  A    between atoms: O_2  and  C_3
REMARK    3  A    between atoms: C_8  and  O_9
REMARK    4  A    between atoms: O_9  and  C_10
REMARK    5  A    between atoms: N_21  and  C_22
REMARK                            x       y       z     vdW  Elec       q    Type
REMARK                         _______ _______ _______ _____ _____    ______ ____
ROOT
ATOM      1  C   UNL     1       3.797   1.798 -21.816  0.00  0.00    +0.162 A 
ATOM      2  C   UNL     1       2.595   1.749 -21.323  0.00  0.00    +0.054 A 
ATOM      3  C   UNL     1       1.576   2.076 -22.061  0.00  0.00    -0.028 A 
ATOM      4  C   UNL     1       1.759   2.451 -23.292  0.00  0.00    +0.025 A 
ATOM      5  C   UNL     1       0.740   2.778 -24.030  0.00  0.00    +0.168 C 
ATOM      6  C   UNL     1      -0.462   2.729 -23.537  0.00  0.00    +0.115 C 
ATOM      7  C   UNL     1      -1.481   3.056 -24.275  0.00  0.00    -0.028 A 
ATOM      8  C   UNL     1      -1.298   3.432 -25.506  0.00  0.00    +0.008 A 
ATOM      9  C   UNL     1      -2.317   3.759 -26.244  0.00  0.00    +0.050 A 
ATOM     10  C   UNL     1      -3.519   3.710 -25.751  0.00  0.00    +0.167 A 
ATOM     11  C   UNL     1      -3.702   3.335 -24.521  0.00  0.00    +0.175 A 
ATOM     12  O   UNL     1      -4.978   3.371 -24.274  0.00  0.00    -0.452 OA
ATOM     13  C   UNL     1      -5.584   3.770 -25.354  0.00  0.00    +0.466 C 
ATOM     14  O   UNL     1      -4.681   3.979 -26.267  0.00  0.00    -0.453 OA
ATOM     15  C   UNL     1      -2.682   3.008 -23.783  0.00  0.00    +0.046 A 
ATOM     16  C   UNL     1      -2.865   2.632 -22.551  0.00  0.00    +0.171 C 
ATOM     17  N   UNL     1      -1.846   2.305 -21.813  0.00  0.00    +0.237 N 
ATOM     18  H   UNL     1      -0.856   2.155 -21.622  0.00  0.00    +0.203 HD
ATOM     19  C   UNL     1      -0.645   2.354 -22.307  0.00  0.00    +0.136 C 
ATOM     20  C   UNL     1      -2.029   1.930 -20.582  0.00  0.00    +0.191 C 
ATOM     21  O   UNL     1       0.922   3.154 -25.262  0.00  0.00    -0.292 OA
ATOM     22  C   UNL     1       2.961   2.500 -23.786  0.00  0.00    +0.061 A 
ATOM     23  C   UNL     1       0.374   2.027 -21.568  0.00  0.00    +0.087 C 
ATOM     24  C   UNL     1       3.980   2.173 -23.047  0.00  0.00    +0.162 A 
ENDROOT
BRANCH   1  26
ATOM     25  C   UNL     1       4.928   0.257 -20.625  0.00  0.00    +0.277 C 
ATOM     26  O   UNL     1       4.816   1.471 -21.078  0.00  0.00    -0.491 OA
ENDBRANCH   1  26
BRANCH  24  27
ATOM     27  O   UNL     1       5.182   2.222 -23.540  0.00  0.00    -0.491 OA
ATOM     28  C   UNL     1       5.801   3.361 -23.634  0.00  0.00    +0.277 C 
ENDBRANCH  24  27
TORSDOF 2
ENDMDL
MODEL 5
REMARK VINA RESULT:    -8.035      1.678      7.616
REMARK INTER + INTRA:          -9.119
REMARK INTER:                  -8.920
REMARK INTRA:                  -0.199
REMARK UNBOUND:                -0.144
REMARK  Name = ZINC000019632726
REMARK  5 active torsions:
REMARK  status: ('A' for Active; 'I' for Inactive)
REMARK    1  A    between atoms: C_1  and  O_2
REMARK    2  A    between atoms: O_2  and  C_3
REMARK    3  A    between atoms: C_8  and  O_9
REMARK    4  A    between atoms: O_9  and  C_10
REMARK    5  A    between atoms: N_21  and  C_22
REMARK                            x       y       z     vdW  Elec       q    Type
REMARK                         _______ _______ _______ _____ _____    ______ ____
ROOT
ATOM      1  C   UNL     1      -3.942   3.373 -23.106  0.00  0.00    +0.162 A 
ATOM      2  C   UNL     1      -3.148   2.800 -22.250  0.00  0.00    +0.054 A 
ATOM      3  C   UNL     1      -1.864   2.809 -22.448  0.00  0.00    -0.028 A 
ATOM      4  C   UNL     1      -1.372   3.390 -23.503  0.00  0.00    +0.025 A 
ATOM      5  C   UNL     1      -0.088   3.398 -23.701  0.00  0.00    +0.168 C 
ATOM      6  C   UNL     1       0.706   2.825 -22.844  0.00  0.00    +0.115 C 
ATOM      7  C   UNL     1       1.991   2.834 -23.042  0.00  0.00    -0.028 A 
ATOM      8  C   UNL     1       2.482   3.415 -24.097  0.00  0.00    +0.008 A 
ATOM      9  C   UNL     1       3.767   3.423 -24.295  0.00  0.00    +0.050 A 
ATOM     10  C   UNL     1       4.560   2.851 -23.439  0.00  0.00    +0.167 A 
ATOM     11  C   UNL     1       4.070   2.270 -22.385  0.00  0.00    +0.175 A 
ATOM     12  O   UNL     1       5.058   1.781 -21.698  0.00  0.00    -0.452 OA
ATOM     13  C   UNL     1       6.162   2.060 -22.327  0.00  0.00    +0.466 C 
ATOM     14  O   UNL     1       5.853   2.721 -23.404  0.00  0.00    -0.453 OA
ATOM     15  C   UNL     1       2.784   2.262 -22.187  0.00  0.00    +0.046 A 
ATOM     16  C   UNL     1       2.293   1.681 -21.133  0.00  0.00    +0.171 C 
ATOM     17  N   UNL     1       1.008   1.673 -20.935  0.00  0.00    +0.237 N 
ATOM     18  H   UNL     1       0.038   1.889 -21.162  0.00  0.00    +0.203 HD
ATOM     19  C   UNL     1       0.215   2.245 -21.791  0.00  0.00    +0.136 C 
ATOM     20  C   UNL     1       0.517   1.092 -19.880  0.00  0.00    +0.191 C 
ATOM     21  O   UNL     1       0.404   3.979 -24.755  0.00  0.00    -0.292 OA
ATOM     22  C   UNL     1      -2.165   3.962 -24.359  0.00  0.00    +0.061 A 
ATOM     23  C   UNL     1      -1.070   2.237 -21.592  0.00  0.00    +0.087 C 
ATOM     24  C   UNL     1      -3.451   3.954 -24.160  0.00  0.00    +0.162 A 
ENDROOT
BRANCH   1  26
ATOM     25  C   UNL     1      -5.705   2.967 -21.766  0.00  0.00    +0.277 C 
ATOM     26  O   UNL     1      -5.226   3.364 -22.908  0.00  0.00    -0.491 OA
ENDBRANCH   1  26
BRANCH  24  27
ATOM     27  O   UNL     1      -4.244   4.526 -25.016  0.00  0.00    -0.491 OA
ATOM     28  C   UNL     1      -4.404   4.012 -26.200  0.00  0.00    +0.277 C 
ENDBRANCH  24  27
TORSDOF 2
ENDMDL
MODEL 6
REMARK VINA RESULT:    -7.750      2.077      7.635
REMARK INTER + INTRA:          -8.800
REMARK INTER:                  -9.088
REMARK INTRA:                   0.288
REMARK UNBOUND:                -0.144
REMARK  Name = ZINC000019632726
REMARK  5 active torsions:
REMARK  status: ('A' for Active; 'I' for Inactive)
REMARK    1  A    between atoms: C_1  and  O_2
REMARK    2  A    between atoms: O_2  and  C_3
REMARK    3  A    between atoms: C_8  and  O_9
REMARK    4  A    between atoms: O_9  and  C_10
REMARK    5  A    between atoms: N_21  and  C_22
REMARK                            x       y       z     vdW  Elec       q    Type
REMARK                         _______ _______ _______ _____ _____    ______ ____
ROOT
ATOM      1  C   UNL     1      -2.387   3.019 -23.221  0.00  0.00    +0.162 A 
ATOM      2  C   UNL     1      -1.421   2.244 -22.827  0.00  0.00    +0.054 A 
ATOM      3  C   UNL     1      -0.198   2.685 -22.813  0.00  0.00    -0.028 A 
ATOM      4  C   UNL     1       0.059   3.901 -23.194  0.00  0.00    +0.025 A 
ATOM      5  C   UNL     1       1.281   4.342 -23.180  0.00  0.00    +0.168 C 
ATOM      6  C   UNL     1       2.248   3.566 -22.785  0.00  0.00    +0.115 C 
ATOM      7  C   UNL     1       3.471   4.007 -22.772  0.00  0.00    -0.028 A 
ATOM      8  C   UNL     1       3.728   5.224 -23.153  0.00  0.00    +0.008 A 
ATOM      9  C   UNL     1       4.950   5.665 -23.139  0.00  0.00    +0.050 A 
ATOM     10  C   UNL     1       5.916   4.889 -22.745  0.00  0.00    +0.167 A 
ATOM     11  C   UNL     1       5.660   3.673 -22.364  0.00  0.00    +0.175 A 
ATOM     12  O   UNL     1       6.782   3.113 -22.022  0.00  0.00    -0.452 OA
ATOM     13  C   UNL     1       7.733   3.984 -22.192  0.00  0.00    +0.466 C 
ATOM     14  O   UNL     1       7.197   5.082 -22.638  0.00  0.00    -0.453 OA
ATOM     15  C   UNL     1       4.437   3.233 -22.378  0.00  0.00    +0.046 A 
ATOM     16  C   UNL     1       4.180   2.016 -21.997  0.00  0.00    +0.171 C 
ATOM     17  N   UNL     1       2.957   1.575 -22.011  0.00  0.00    +0.237 N 
ATOM     18  H   UNL     1       1.952   1.646 -22.170  0.00  0.00    +0.203 HD
ATOM     19  C   UNL     1       1.991   2.351 -22.405  0.00  0.00    +0.136 C 
ATOM     20  C   UNL     1       2.700   0.359 -21.630  0.00  0.00    +0.191 C 
ATOM     21  O   UNL     1       1.539   5.558 -23.561  0.00  0.00    -0.292 OA
ATOM     22  C   UNL     1      -0.907   4.677 -23.588  0.00  0.00    +0.061 A 
ATOM     23  C   UNL     1       0.768   1.910 -22.419  0.00  0.00    +0.087 C 
ATOM     24  C   UNL     1      -2.131   4.235 -23.602  0.00  0.00    +0.162 A 
ENDROOT
BRANCH   1  26
ATOM     25  C   UNL     1      -4.339   2.649 -22.160  0.00  0.00    +0.277 C 
ATOM     26  O   UNL     1      -3.610   2.578 -23.235  0.00  0.00    -0.491 OA
ENDBRANCH   1  26
BRANCH  24  27
ATOM     27  O   UNL     1      -3.096   5.010 -23.996  0.00  0.00    -0.491 OA
ATOM     28  C   UNL     1      -3.680   4.794 -25.138  0.00  0.00    +0.277 C 
ENDBRANCH  24  27
TORSDOF 2
ENDMDL
MODEL 7
REMARK VINA RESULT:    -7.496      4.933      7.318
REMARK INTER + INTRA:          -8.516
REMARK INTER:                  -8.294
REMARK INTRA:                  -0.223
REMARK UNBOUND:                -0.144
REMARK  Name = ZINC000019632726
REMARK  5 active torsions:
REMARK  status: ('A' for Active; 'I' for Inactive)
REMARK    1  A    between atoms: C_1  and  O_2
REMARK    2  A    between atoms: O_2  and  C_3
REMARK    3  A    between atoms: C_8  and  O_9
REMARK    4  A    between atoms: O_9  and  C_10
REMARK    5  A    between atoms: N_21  and  C_22
REMARK                            x       y       z     vdW  Elec       q    Type
REMARK                         _______ _______ _______ _____ _____    ______ ____
ROOT
ATOM      1  C   UNL     1       7.354   9.200 -21.264  0.00  0.00    +0.162 A 
ATOM      2  C   UNL     1       7.753   8.058 -21.740  0.00  0.00    +0.054 A 
ATOM      3  C   UNL     1       6.880   7.156 -22.081  0.00  0.00    -0.028 A 
ATOM      4  C   UNL     1       5.610   7.397 -21.946  0.00  0.00    +0.025 A 
ATOM      5  C   UNL     1       4.737   6.496 -22.287  0.00  0.00    +0.168 C 
ATOM      6  C   UNL     1       5.136   5.352 -22.763  0.00  0.00    +0.115 C 
ATOM      7  C   UNL     1       4.264   4.451 -23.104  0.00  0.00    -0.028 A 
ATOM      8  C   UNL     1       2.993   4.692 -22.969  0.00  0.00    +0.008 A 
ATOM      9  C   UNL     1       2.121   3.791 -23.310  0.00  0.00    +0.050 A 
ATOM     10  C   UNL     1       2.519   2.648 -23.786  0.00  0.00    +0.167 A 
ATOM     11  C   UNL     1       3.789   2.407 -23.921  0.00  0.00    +0.175 A 
ATOM     12  O   UNL     1       3.922   1.211 -24.410  0.00  0.00    -0.452 OA
ATOM     13  C   UNL     1       2.733   0.711 -24.579  0.00  0.00    +0.466 C 
ATOM     14  O   UNL     1       1.866   1.601 -24.192  0.00  0.00    -0.453 OA
ATOM     15  C   UNL     1       4.661   3.309 -23.579  0.00  0.00    +0.046 A 
ATOM     16  C   UNL     1       5.932   3.068 -23.714  0.00  0.00    +0.171 C 
ATOM     17  N   UNL     1       6.804   3.970 -23.373  0.00  0.00    +0.237 N 
ATOM     18  H   UNL     1       7.102   4.876 -23.013  0.00  0.00    +0.203 HD
ATOM     19  C   UNL     1       6.406   5.112 -22.897  0.00  0.00    +0.136 C 
ATOM     20  C   UNL     1       8.075   3.729 -23.507  0.00  0.00    +0.191 C 
ATOM     21  O   UNL     1       3.467   6.736 -22.153  0.00  0.00    -0.292 OA
ATOM     22  C   UNL     1       5.211   8.540 -21.471  0.00  0.00    +0.061 A 
ATOM     23  C   UNL     1       7.278   6.013 -22.556  0.00  0.00    +0.087 C 
ATOM     24  C   UNL     1       6.085   9.441 -21.130  0.00  0.00    +0.162 A 
ENDROOT
BRANCH   1  26
ATOM     25  C   UNL     1       9.053  10.574 -21.809  0.00  0.00    +0.277 C 
ATOM     26  O   UNL     1       8.227  10.101 -20.923  0.00  0.00    -0.491 OA
ENDBRANCH   1  26
BRANCH  24  27
ATOM     27  O   UNL     1       5.686  10.584 -20.654  0.00  0.00    -0.491 OA
ATOM     28  C   UNL     1       4.418  10.869 -20.623  0.00  0.00    +0.277 C 
ENDBRANCH  24  27
TORSDOF 2
ENDMDL
