MODEL 1
REMARK VINA RESULT:    -7.226      0.000      0.000
REMARK INTER + INTRA:          -8.263
REMARK INTER:                  -8.076
REMARK INTRA:                  -0.187
REMARK UNBOUND:                -0.193
REMARK  Name = ZINC000000002067
REMARK  4 active torsions:
REMARK  status: ('A' for Active; 'I' for Inactive)
REMARK    1  A    between atoms: C_1  and  O_2
REMARK    2  A    between atoms: O_2  and  C_3
REMARK    3  A    between atoms: C_13  and  O_14
REMARK    4  A    between atoms: O_14  and  C_15
REMARK                            x       y       z     vdW  Elec       q    Type
REMARK                         _______ _______ _______ _____ _____    ______ ____
ROOT
ATOM      1  C   UNL     1      -0.704   3.007 -24.117  0.00  0.00    +0.162 A 
ATOM      2  C   UNL     1      -1.815   3.402 -24.661  0.00  0.00    +0.061 A 
ATOM      3  C   UNL     1      -2.916   3.393 -23.971  0.00  0.00    +0.021 A 
ATOM      4  C   UNL     1      -4.028   3.789 -24.515  0.00  0.00    +0.018 A 
ATOM      5  C   UNL     1      -5.130   3.780 -23.825  0.00  0.00    +0.092 A 
ATOM      6  C   UNL     1      -5.119   3.376 -22.589  0.00  0.00    +0.337 A 
ATOM      7  O   UNL     1      -4.007   2.980 -22.044  0.00  0.00    -0.422 OA
ATOM      8  O   UNL     1      -6.220   3.367 -21.898  0.00  0.00    -0.245 OA
ATOM      9  C   UNL     1      -2.906   2.989 -22.735  0.00  0.00    +0.143 A 
ATOM     10  C   UNL     1      -1.794   2.594 -22.190  0.00  0.00    +0.096 A 
ATOM     11  C   UNL     1      -0.693   2.603 -22.881  0.00  0.00    +0.165 A 
ENDROOT
BRANCH   1  13
ATOM     12  C   UNL     1       0.884   4.140 -25.242  0.00  0.00    +0.277 C 
ATOM     13  O   UNL     1       0.398   3.015 -24.807  0.00  0.00    -0.491 OA
ENDBRANCH   1  13
BRANCH  11  14
ATOM     14  O   UNL     1       0.420   2.207 -22.336  0.00  0.00    -0.491 OA
ATOM     15  C   UNL     1       0.395   1.515 -21.236  0.00  0.00    +0.277 C 
ENDBRANCH  11  14
TORSDOF 2
ENDMDL
MODEL 2
REMARK VINA RESULT:    -7.199      1.457      5.081
REMARK INTER + INTRA:          -8.234
REMARK INTER:                  -8.040
REMARK INTRA:                  -0.194
REMARK UNBOUND:                -0.193
REMARK  Name = ZINC000000002067
REMARK  4 active torsions:
REMARK  status: ('A' for Active; 'I' for Inactive)
REMARK    1  A    between atoms: C_1  and  O_2
REMARK    2  A    between atoms: O_2  and  C_3
REMARK    3  A    between atoms: C_13  and  O_14
REMARK    4  A    between atoms: O_14  and  C_15
REMARK                            x       y       z     vdW  Elec       q    Type
REMARK                         _______ _______ _______ _____ _____    ______ ____
ROOT
ATOM      1  C   UNL     1      -3.587   3.334 -23.280  0.00  0.00    +0.162 A 
ATOM      2  C   UNL     1      -2.967   2.827 -22.256  0.00  0.00    +0.061 A 
ATOM      3  C   UNL     1      -1.742   2.411 -22.380  0.00  0.00    +0.021 A 
ATOM      4  C   UNL     1      -1.122   1.903 -21.357  0.00  0.00    +0.018 A 
ATOM      5  C   UNL     1       0.104   1.487 -21.480  0.00  0.00    +0.092 A 
ATOM      6  C   UNL     1       0.709   1.579 -22.627  0.00  0.00    +0.337 A 
ATOM      7  O   UNL     1       0.089   2.087 -23.650  0.00  0.00    -0.422 OA
ATOM      8  O   UNL     1       1.935   1.163 -22.750  0.00  0.00    -0.245 OA
ATOM      9  C   UNL     1      -1.137   2.502 -23.527  0.00  0.00    +0.143 A 
ATOM     10  C   UNL     1      -1.757   3.010 -24.550  0.00  0.00    +0.096 A 
ATOM     11  C   UNL     1      -2.982   3.426 -24.427  0.00  0.00    +0.165 A 
ENDROOT
BRANCH   1  13
ATOM     12  C   UNL     1      -5.543   3.338 -22.163  0.00  0.00    +0.277 C 
ATOM     13  O   UNL     1      -4.813   3.751 -23.157  0.00  0.00    -0.491 OA
ENDBRANCH   1  13
BRANCH  11  14
ATOM     14  O   UNL     1      -3.603   3.934 -25.450  0.00  0.00    -0.491 OA
ATOM     15  C   UNL     1      -3.488   3.380 -26.621  0.00  0.00    +0.277 C 
ENDBRANCH  11  14
TORSDOF 2
ENDMDL
MODEL 3
REMARK VINA RESULT:    -7.040      1.590      4.385
REMARK INTER + INTRA:          -8.056
REMARK INTER:                  -7.864
REMARK INTRA:                  -0.192
REMARK UNBOUND:                -0.193
REMARK  Name = ZINC000000002067
REMARK  4 active torsions:
REMARK  status: ('A' for Active; 'I' for Inactive)
REMARK    1  A    between atoms: C_1  and  O_2
REMARK    2  A    between atoms: O_2  and  C_3
REMARK    3  A    between atoms: C_13  and  O_14
REMARK    4  A    between atoms: O_14  and  C_15
REMARK                            x       y       z     vdW  Elec       q    Type
REMARK                         _______ _______ _______ _____ _____    ______ ____
ROOT
ATOM      1  C   UNL     1      -2.960   3.506 -24.395  0.00  0.00    +0.162 A 
ATOM      2  C   UNL     1      -1.701   3.191 -24.479  0.00  0.00    +0.061 A 
ATOM      3  C   UNL     1      -1.081   2.710 -23.443  0.00  0.00    +0.021 A 
ATOM      4  C   UNL     1       0.177   2.395 -23.527  0.00  0.00    +0.018 A 
ATOM      5  C   UNL     1       0.798   1.913 -22.491  0.00  0.00    +0.092 A 
ATOM      6  C   UNL     1       0.160   1.746 -21.371  0.00  0.00    +0.337 A 
ATOM      7  O   UNL     1      -1.100   2.061 -21.287  0.00  0.00    -0.422 OA
ATOM      8  O   UNL     1       0.780   1.265 -20.335  0.00  0.00    -0.245 OA
ATOM      9  C   UNL     1      -1.720   2.543 -22.323  0.00  0.00    +0.143 A 
ATOM     10  C   UNL     1      -2.978   2.857 -22.239  0.00  0.00    +0.096 A 
ATOM     11  C   UNL     1      -3.598   3.339 -23.274  0.00  0.00    +0.165 A 
ENDROOT
BRANCH   1  13
ATOM     12  C   UNL     1      -3.374   3.475 -26.608  0.00  0.00    +0.277 C 
ATOM     13  O   UNL     1      -3.580   3.987 -25.431  0.00  0.00    -0.491 OA
ENDBRANCH   1  13
BRANCH  11  14
ATOM     14  O   UNL     1      -4.857   3.654 -23.191  0.00  0.00    -0.491 OA
ATOM     15  C   UNL     1      -5.558   3.262 -22.169  0.00  0.00    +0.277 C 
ENDBRANCH  11  14
TORSDOF 2
ENDMDL
MODEL 4
REMARK VINA RESULT:    -6.968      1.030      2.714
REMARK INTER + INTRA:          -7.975
REMARK INTER:                  -7.781
REMARK INTRA:                  -0.195
REMARK UNBOUND:                -0.193
REMARK  Name = ZINC000000002067
REMARK  4 active torsions:
REMARK  status: ('A' for Active; 'I' for Inactive)
REMARK    1  A    between atoms: C_1  and  O_2
REMARK    2  A    between atoms: O_2  and  C_3
REMARK    3  A    between atoms: C_13  and  O_14
REMARK    4  A    between atoms: O_14  and  C_15
REMARK                            x       y       z     vdW  Elec       q    Type
REMARK                         _______ _______ _______ _____ _____    ______ ____
ROOT
ATOM      1  C   UNL     1       0.027   2.191 -22.792  0.00  0.00    +0.162 A 
ATOM      2  C   UNL     1      -0.888   2.058 -21.878  0.00  0.00    +0.061 A 
ATOM      3  C   UNL     1      -2.102   2.458 -22.112  0.00  0.00    +0.021 A 
ATOM      4  C   UNL     1      -3.017   2.325 -21.198  0.00  0.00    +0.018 A 
ATOM      5  C   UNL     1      -4.233   2.725 -21.432  0.00  0.00    +0.092 A 
ATOM      6  C   UNL     1      -4.532   3.257 -22.580  0.00  0.00    +0.337 A 
ATOM      7  O   UNL     1      -3.617   3.389 -23.494  0.00  0.00    -0.422 OA
ATOM      8  O   UNL     1      -5.747   3.656 -22.814  0.00  0.00    -0.245 OA
ATOM      9  C   UNL     1      -2.402   2.989 -23.260  0.00  0.00    +0.143 A 
ATOM     10  C   UNL     1      -1.487   3.122 -24.173  0.00  0.00    +0.096 A 
ATOM     11  C   UNL     1      -0.273   2.722 -23.939  0.00  0.00    +0.165 A 
ENDROOT
BRANCH   1  13
ATOM     12  C   UNL     1       1.617   1.526 -21.342  0.00  0.00    +0.277 C 
ATOM     13  O   UNL     1       1.242   1.791 -22.558  0.00  0.00    -0.491 OA
ENDBRANCH   1  13
BRANCH  11  14
ATOM     14  O   UNL     1       0.643   2.855 -24.853  0.00  0.00    -0.491 OA
ATOM     15  C   UNL     1       0.889   4.025 -25.363  0.00  0.00    +0.277 C 
ENDBRANCH  11  14
TORSDOF 2
ENDMDL
MODEL 5
REMARK VINA RESULT:    -6.879      1.878      2.884
REMARK INTER + INTRA:          -7.876
REMARK INTER:                  -7.690
REMARK INTRA:                  -0.186
REMARK UNBOUND:                -0.193
REMARK  Name = ZINC000000002067
REMARK  4 active torsions:
REMARK  status: ('A' for Active; 'I' for Inactive)
REMARK    1  A    between atoms: C_1  and  O_2
REMARK    2  A    between atoms: O_2  and  C_3
REMARK    3  A    between atoms: C_13  and  O_14
REMARK    4  A    between atoms: O_14  and  C_15
REMARK                            x       y       z     vdW  Elec       q    Type
REMARK                         _______ _______ _______ _____ _____    ______ ____
ROOT
ATOM      1  C   UNL     1      -2.338   3.488 -25.357  0.00  0.00    +0.162 A 
ATOM      2  C   UNL     1      -3.418   3.392 -24.641  0.00  0.00    +0.061 A 
ATOM      3  C   UNL     1      -3.348   3.476 -23.346  0.00  0.00    +0.021 A 
ATOM      4  C   UNL     1      -4.429   3.379 -22.630  0.00  0.00    +0.018 A 
ATOM      5  C   UNL     1      -4.360   3.463 -21.334  0.00  0.00    +0.092 A 
ATOM      6  C   UNL     1      -3.210   3.644 -20.755  0.00  0.00    +0.337 A 
ATOM      7  O   UNL     1      -2.129   3.741 -21.472  0.00  0.00    -0.422 OA
ATOM      8  O   UNL     1      -3.141   3.728 -19.460  0.00  0.00    -0.245 OA
ATOM      9  C   UNL     1      -2.199   3.657 -22.767  0.00  0.00    +0.143 A 
ATOM     10  C   UNL     1      -1.118   3.753 -23.483  0.00  0.00    +0.096 A 
ATOM     11  C   UNL     1      -1.188   3.669 -24.778  0.00  0.00    +0.165 A 
ENDROOT
BRANCH   1  13
ATOM     12  C   UNL     1      -3.565   3.386 -27.243  0.00  0.00    +0.277 C 
ATOM     13  O   UNL     1      -2.406   3.404 -26.653  0.00  0.00    -0.491 OA
ENDBRANCH   1  13
BRANCH  11  14
ATOM     14  O   UNL     1      -0.107   3.766 -25.495  0.00  0.00    -0.491 OA
ATOM     15  C   UNL     1       0.991   4.209 -24.959  0.00  0.00    +0.277 C 
ENDBRANCH  11  14
TORSDOF 2
ENDMDL
MODEL 6
REMARK VINA RESULT:    -6.631      1.385      4.695
REMARK INTER + INTRA:          -7.599
REMARK INTER:                  -7.404
REMARK INTRA:                  -0.195
REMARK UNBOUND:                -0.193
REMARK  Name = ZINC000000002067
REMARK  4 active torsions:
REMARK  status: ('A' for Active; 'I' for Inactive)
REMARK    1  A    between atoms: C_1  and  O_2
REMARK    2  A    between atoms: O_2  and  C_3
REMARK    3  A    between atoms: C_13  and  O_14
REMARK    4  A    between atoms: O_14  and  C_15
REMARK                            x       y       z     vdW  Elec       q    Type
REMARK                         _______ _______ _______ _____ _____    ______ ____
ROOT
ATOM      1  C   UNL     1      -2.964   3.430 -23.488  0.00  0.00    +0.162 A 
ATOM      2  C   UNL     1      -2.200   3.634 -24.520  0.00  0.00    +0.061 A 
ATOM      3  C   UNL     1      -0.907   3.599 -24.388  0.00  0.00    +0.021 A 
ATOM      4  C   UNL     1      -0.144   3.803 -25.419  0.00  0.00    +0.018 A 
ATOM      5  C   UNL     1       1.150   3.769 -25.288  0.00  0.00    +0.092 A 
ATOM      6  C   UNL     1       1.679   3.530 -24.124  0.00  0.00    +0.337 A 
ATOM      7  O   UNL     1       0.914   3.326 -23.092  0.00  0.00    -0.422 OA
ATOM      8  O   UNL     1       2.971   3.496 -23.992  0.00  0.00    -0.245 OA
ATOM      9  C   UNL     1      -0.379   3.361 -23.224  0.00  0.00    +0.143 A 
ATOM     10  C   UNL     1      -1.143   3.157 -22.193  0.00  0.00    +0.096 A 
ATOM     11  C   UNL     1      -2.435   3.192 -22.325  0.00  0.00    +0.165 A 
ENDROOT
BRANCH   1  13
ATOM     12  C   UNL     1      -4.792   4.093 -24.624  0.00  0.00    +0.277 C 
ATOM     13  O   UNL     1      -4.257   3.465 -23.619  0.00  0.00    -0.491 OA
ENDBRANCH   1  13
BRANCH  11  14
ATOM     14  O   UNL     1      -3.200   2.988 -21.293  0.00  0.00    -0.491 OA
ATOM     15  C   UNL     1      -3.102   3.757 -20.249  0.00  0.00    +0.277 C 
ENDBRANCH  11  14
TORSDOF 2
ENDMDL
MODEL 7
REMARK VINA RESULT:    -6.526      1.993      5.178
REMARK INTER + INTRA:          -7.482
REMARK INTER:                  -7.298
REMARK INTRA:                  -0.184
REMARK UNBOUND:                -0.193
REMARK  Name = ZINC000000002067
REMARK  4 active torsions:
REMARK  status: ('A' for Active; 'I' for Inactive)
REMARK    1  A    between atoms: C_1  and  O_2
REMARK    2  A    between atoms: O_2  and  C_3
REMARK    3  A    between atoms: C_13  and  O_14
REMARK    4  A    between atoms: O_14  and  C_15
REMARK                            x       y       z     vdW  Elec       q    Type
REMARK                         _______ _______ _______ _____ _____    ______ ____
ROOT
ATOM      1  C   UNL     1      -1.254   3.043 -23.235  0.00  0.00    +0.162 A 
ATOM      2  C   UNL     1      -0.022   2.934 -23.633  0.00  0.00    +0.061 A 
ATOM      3  C   UNL     1       0.842   2.295 -22.902  0.00  0.00    +0.021 A 
ATOM      4  C   UNL     1       2.075   2.186 -23.299  0.00  0.00    +0.018 A 
ATOM      5  C   UNL     1       2.940   1.547 -22.568  0.00  0.00    +0.092 A 
ATOM      6  C   UNL     1       2.571   1.016 -21.440  0.00  0.00    +0.337 A 
ATOM      7  O   UNL     1       1.338   1.126 -21.043  0.00  0.00    -0.422 OA
ATOM      8  O   UNL     1       3.435   0.377 -20.709  0.00  0.00    -0.245 OA
ATOM      9  C   UNL     1       0.474   1.765 -21.774  0.00  0.00    +0.143 A 
ATOM     10  C   UNL     1      -0.759   1.874 -21.376  0.00  0.00    +0.096 A 
ATOM     11  C   UNL     1      -1.623   2.513 -22.107  0.00  0.00    +0.165 A 
ENDROOT
BRANCH   1  13
ATOM     12  C   UNL     1      -2.466   3.210 -25.127  0.00  0.00    +0.277 C 
ATOM     13  O   UNL     1      -2.119   3.683 -23.966  0.00  0.00    -0.491 OA
ENDBRANCH   1  13
BRANCH  11  14
ATOM     14  O   UNL     1      -2.856   2.623 -21.710  0.00  0.00    -0.491 OA
ATOM     15  C   UNL     1      -3.134   3.288 -20.628  0.00  0.00    +0.277 C 
ENDBRANCH  11  14
TORSDOF 2
ENDMDL
MODEL 8
REMARK VINA RESULT:    -6.440      1.436      1.981
REMARK INTER + INTRA:          -7.386
REMARK INTER:                  -7.228
REMARK INTRA:                  -0.158
REMARK UNBOUND:                -0.193
REMARK  Name = ZINC000000002067
REMARK  4 active torsions:
REMARK  status: ('A' for Active; 'I' for Inactive)
REMARK    1  A    between atoms: C_1  and  O_2
REMARK    2  A    between atoms: O_2  and  C_3
REMARK    3  A    between atoms: C_13  and  O_14
REMARK    4  A    between atoms: O_14  and  C_15
REMARK                            x       y       z     vdW  Elec       q    Type
REMARK                         _______ _______ _______ _____ _____    ______ ____
ROOT
ATOM      1  C   UNL     1       0.947   2.260 -23.254  0.00  0.00    +0.162 A 
ATOM      2  C   UNL     1      -0.079   2.877 -23.761  0.00  0.00    +0.061 A 
ATOM      3  C   UNL     1      -1.231   2.824 -23.161  0.00  0.00    +0.021 A 
ATOM      4  C   UNL     1      -2.256   3.441 -23.668  0.00  0.00    +0.018 A 
ATOM      5  C   UNL     1      -3.409   3.388 -23.068  0.00  0.00    +0.092 A 
ATOM      6  C   UNL     1      -3.535   2.717 -21.961  0.00  0.00    +0.337 A 
ATOM      7  O   UNL     1      -2.509   2.100 -21.454  0.00  0.00    -0.422 OA
ATOM      8  O   UNL     1      -4.687   2.664 -21.361  0.00  0.00    -0.245 OA
ATOM      9  C   UNL     1      -1.357   2.154 -22.054  0.00  0.00    +0.143 A 
ATOM     10  C   UNL     1      -0.331   1.537 -21.547  0.00  0.00    +0.096 A 
ATOM     11  C   UNL     1       0.820   1.590 -22.147  0.00  0.00    +0.165 A 
ENDROOT
BRANCH   1  13
ATOM     12  C   UNL     1       2.694   3.457 -24.019  0.00  0.00    +0.277 C 
ATOM     13  O   UNL     1       2.099   2.313 -23.854  0.00  0.00    -0.491 OA
ENDBRANCH   1  13
BRANCH  11  14
ATOM     14  O   UNL     1       1.847   0.973 -21.641  0.00  0.00    -0.491 OA
ATOM     15  C   UNL     1       2.500   1.503 -20.650  0.00  0.00    +0.277 C 
ENDBRANCH  11  14
TORSDOF 2
ENDMDL
MODEL 9
REMARK VINA RESULT:    -6.255      1.697      3.073
REMARK INTER + INTRA:          -7.179
REMARK INTER:                  -6.986
REMARK INTRA:                  -0.193
REMARK UNBOUND:                -0.193
REMARK  Name = ZINC000000002067
REMARK  4 active torsions:
REMARK  status: ('A' for Active; 'I' for Inactive)
REMARK    1  A    between atoms: C_1  and  O_2
REMARK    2  A    between atoms: O_2  and  C_3
REMARK    3  A    between atoms: C_13  and  O_14
REMARK    4  A    between atoms: O_14  and  C_15
REMARK                            x       y       z     vdW  Elec       q    Type
REMARK                         _______ _______ _______ _____ _____    ______ ____
ROOT
ATOM      1  C   UNL     1      -0.942   3.774 -24.787  0.00  0.00    +0.162 A 
ATOM      2  C   UNL     1      -0.884   3.770 -23.488  0.00  0.00    +0.061 A 
ATOM      3  C   UNL     1      -1.933   3.446 -22.793  0.00  0.00    +0.021 A 
ATOM      4  C   UNL     1      -1.876   3.443 -21.494  0.00  0.00    +0.018 A 
ATOM      5  C   UNL     1      -2.925   3.118 -20.798  0.00  0.00    +0.092 A 
ATOM      6  C   UNL     1      -4.032   2.798 -21.400  0.00  0.00    +0.337 A 
ATOM      7  O   UNL     1      -4.089   2.802 -22.700  0.00  0.00    -0.422 OA
ATOM      8  O   UNL     1      -5.081   2.474 -20.705  0.00  0.00    -0.245 OA
ATOM      9  C   UNL     1      -3.040   3.126 -23.395  0.00  0.00    +0.143 A 
ATOM     10  C   UNL     1      -3.097   3.130 -24.694  0.00  0.00    +0.096 A 
ATOM     11  C   UNL     1      -2.048   3.454 -25.389  0.00  0.00    +0.165 A 
ENDROOT
BRANCH   1  13
ATOM     12  C   UNL     1       1.285   3.690 -25.113  0.00  0.00    +0.277 C 
ATOM     13  O   UNL     1       0.108   4.098 -25.483  0.00  0.00    -0.491 OA
ENDBRANCH   1  13
BRANCH  11  14
ATOM     14  O   UNL     1      -2.105   3.458 -26.689  0.00  0.00    -0.491 OA
ATOM     15  C   UNL     1      -3.257   3.514 -27.289  0.00  0.00    +0.277 C 
ENDBRANCH  11  14
TORSDOF 2
ENDMDL
