MODEL 1
REMARK VINA RESULT:    -9.837      0.000      0.000
REMARK INTER + INTRA:          -9.837
REMARK INTER:                  -9.837
REMARK INTRA:                   0.000
REMARK UNBOUND:                 0.000
REMARK  Name = ZINC000000338173
REMARK  2 active torsions:
REMARK  status: ('A' for Active; 'I' for Inactive)
REMARK    1  A    between atoms: C_1  and  N_2
REMARK    2  A    between atoms: N_2  and  C_3
REMARK                            x       y       z     vdW  Elec       q    Type
REMARK                         _______ _______ _______ _____ _____    ______ ____
ROOT
ATOM      1  C   UNL     1       2.215   2.647 -24.260  0.00  0.00    +0.193 C 
ATOM      2  N   UNL     1       0.939   2.724 -24.023  0.00  0.00    +0.245 N 
ATOM      3  C   UNL     1       1.372   2.434 -22.833  0.00  0.00    +0.138 C 
ATOM      4  C   UNL     1       0.532   2.313 -21.848  0.00  0.00    +0.086 C 
ATOM      5  C   UNL     1      -0.740   2.482 -22.053  0.00  0.00    -0.030 A 
ATOM      6  C   UNL     1      -1.579   2.360 -21.067  0.00  0.00    +0.054 A 
ATOM      7  C   UNL     1      -2.852   2.529 -21.273  0.00  0.00    +0.167 A 
ATOM      8  C   UNL     1      -3.285   2.820 -22.464  0.00  0.00    +0.174 A 
ATOM      9  O   UNL     1      -4.578   2.936 -22.405  0.00  0.00    -0.452 OA
ATOM     10  C   UNL     1      -4.945   2.717 -21.177  0.00  0.00    +0.466 C 
ATOM     11  C   UNL     1      -2.446   2.941 -23.450  0.00  0.00    +0.037 A 
ATOM     12  C   UNL     1      -2.878   3.232 -24.640  0.00  0.00    -0.010 A 
ATOM     13  C   UNL     1      -4.151   3.401 -24.846  0.00  0.00    +0.009 A 
ATOM     14  C   UNL     1      -4.584   3.691 -26.037  0.00  0.00    +0.001 A 
ATOM     15  C   UNL     1      -3.745   3.812 -27.022  0.00  0.00    +0.000 A 
ATOM     16  C   UNL     1      -2.472   3.643 -26.816  0.00  0.00    +0.004 A 
ATOM     17  C   UNL     1      -2.039   3.353 -25.626  0.00  0.00    -0.034 A 
ATOM     18  C   UNL     1      -0.766   3.184 -25.420  0.00  0.00    +0.095 C 
ATOM     19  O   UNL     1      -3.878   2.466 -20.478  0.00  0.00    -0.453 OA
ATOM     20  C   UNL     1      -1.173   2.772 -23.243  0.00  0.00    +0.015 A 
ATOM     21  C   UNL     1       0.949   2.988 -25.296  0.00  0.00    +0.193 C 
ATOM     22  C   UNL     1      -0.333   2.893 -24.230  0.00  0.00    +0.102 C 
ENDROOT
TORSDOF 0
ENDMDL
MODEL 2
REMARK VINA RESULT:    -9.711      1.455      3.895
REMARK INTER + INTRA:          -9.711
REMARK INTER:                  -9.711
REMARK INTRA:                   0.000
REMARK UNBOUND:                 0.000
REMARK  Name = ZINC000000338173
REMARK  2 active torsions:
REMARK  status: ('A' for Active; 'I' for Inactive)
REMARK    1  A    between atoms: C_1  and  N_2
REMARK    2  A    between atoms: N_2  and  C_3
REMARK                            x       y       z     vdW  Elec       q    Type
REMARK                         _______ _______ _______ _____ _____    ______ ____
ROOT
ATOM      1  C   UNL     1       1.618   1.788 -21.622  0.00  0.00    +0.193 C 
ATOM      2  N   UNL     1       0.506   2.126 -22.205  0.00  0.00    +0.245 N 
ATOM      3  C   UNL     1       1.334   2.260 -23.199  0.00  0.00    +0.138 C 
ATOM      4  C   UNL     1       0.896   2.645 -24.361  0.00  0.00    +0.086 C 
ATOM      5  C   UNL     1      -0.368   2.896 -24.529  0.00  0.00    -0.030 A 
ATOM      6  C   UNL     1      -0.805   3.281 -25.692  0.00  0.00    +0.054 A 
ATOM      7  C   UNL     1      -2.070   3.531 -25.860  0.00  0.00    +0.167 A 
ATOM      8  C   UNL     1      -2.897   3.397 -24.866  0.00  0.00    +0.174 A 
ATOM      9  O   UNL     1      -4.087   3.704 -25.289  0.00  0.00    -0.452 OA
ATOM     10  C   UNL     1      -3.996   4.029 -26.545  0.00  0.00    +0.466 C 
ATOM     11  C   UNL     1      -2.460   3.012 -23.703  0.00  0.00    +0.037 A 
ATOM     12  C   UNL     1      -3.287   2.877 -22.710  0.00  0.00    -0.010 A 
ATOM     13  C   UNL     1      -4.551   3.128 -22.878  0.00  0.00    +0.009 A 
ATOM     14  C   UNL     1      -5.379   2.994 -21.884  0.00  0.00    +0.001 A 
ATOM     15  C   UNL     1      -4.941   2.609 -20.722  0.00  0.00    +0.000 A 
ATOM     16  C   UNL     1      -3.676   2.358 -20.554  0.00  0.00    +0.004 A 
ATOM     17  C   UNL     1      -2.850   2.492 -21.547  0.00  0.00    -0.034 A 
ATOM     18  C   UNL     1      -1.584   2.242 -21.379  0.00  0.00    +0.095 C 
ATOM     19  O   UNL     1      -2.749   3.922 -26.897  0.00  0.00    -0.453 OA
ATOM     20  C   UNL     1      -1.195   2.761 -23.536  0.00  0.00    +0.015 A 
ATOM     21  C   UNL     1       0.066   1.874 -21.008  0.00  0.00    +0.193 C 
ATOM     22  C   UNL     1      -0.758   2.376 -22.373  0.00  0.00    +0.102 C 
ENDROOT
TORSDOF 0
ENDMDL
MODEL 3
REMARK VINA RESULT:    -8.690      2.298      4.188
REMARK INTER + INTRA:          -8.690
REMARK INTER:                  -8.690
REMARK INTRA:                   0.000
REMARK UNBOUND:                 0.000
REMARK  Name = ZINC000000338173
REMARK  2 active torsions:
REMARK  status: ('A' for Active; 'I' for Inactive)
REMARK    1  A    between atoms: C_1  and  N_2
REMARK    2  A    between atoms: N_2  and  C_3
REMARK                            x       y       z     vdW  Elec       q    Type
REMARK                         _______ _______ _______ _____ _____    ______ ____
ROOT
ATOM      1  C   UNL     1      -4.765   3.191 -20.490  0.00  0.00    +0.193 C 
ATOM      2  N   UNL     1      -3.924   3.198 -21.482  0.00  0.00    +0.245 N 
ATOM      3  C   UNL     1      -3.100   3.051 -20.487  0.00  0.00    +0.138 C 
ATOM      4  C   UNL     1      -1.822   2.962 -20.711  0.00  0.00    +0.086 C 
ATOM      5  C   UNL     1      -1.369   3.019 -21.928  0.00  0.00    -0.030 A 
ATOM      6  C   UNL     1      -0.091   2.929 -22.150  0.00  0.00    +0.054 A 
ATOM      7  C   UNL     1       0.362   2.986 -23.368  0.00  0.00    +0.167 A 
ATOM      8  C   UNL     1      -0.462   3.132 -24.362  0.00  0.00    +0.174 A 
ATOM      9  O   UNL     1       0.232   3.160 -25.460  0.00  0.00    -0.452 OA
ATOM     10  C   UNL     1       1.487   3.030 -25.145  0.00  0.00    +0.466 C 
ATOM     11  C   UNL     1      -1.741   3.222 -24.140  0.00  0.00    +0.037 A 
ATOM     12  C   UNL     1      -2.565   3.368 -25.133  0.00  0.00    -0.010 A 
ATOM     13  C   UNL     1      -2.112   3.425 -26.350  0.00  0.00    +0.009 A 
ATOM     14  C   UNL     1      -2.936   3.571 -27.345  0.00  0.00    +0.001 A 
ATOM     15  C   UNL     1      -4.214   3.661 -27.122  0.00  0.00    +0.000 A 
ATOM     16  C   UNL     1      -4.667   3.604 -25.905  0.00  0.00    +0.004 A 
ATOM     17  C   UNL     1      -3.843   3.458 -24.911  0.00  0.00    -0.034 A 
ATOM     18  C   UNL     1      -4.296   3.401 -23.693  0.00  0.00    +0.095 C 
ATOM     19  O   UNL     1       1.567   2.923 -23.852  0.00  0.00    -0.453 OA
ATOM     20  C   UNL     1      -2.193   3.165 -22.922  0.00  0.00    +0.015 A 
ATOM     21  C   UNL     1      -5.041   3.342 -22.132  0.00  0.00    +0.193 C 
ATOM     22  C   UNL     1      -3.472   3.255 -22.699  0.00  0.00    +0.102 C 
ENDROOT
TORSDOF 0
ENDMDL
MODEL 4
REMARK VINA RESULT:    -8.506      1.429      4.129
REMARK INTER + INTRA:          -8.506
REMARK INTER:                  -8.506
REMARK INTRA:                   0.000
REMARK UNBOUND:                 0.000
REMARK  Name = ZINC000000338173
REMARK  2 active torsions:
REMARK  status: ('A' for Active; 'I' for Inactive)
REMARK    1  A    between atoms: C_1  and  N_2
REMARK    2  A    between atoms: N_2  and  C_3
REMARK                            x       y       z     vdW  Elec       q    Type
REMARK                         _______ _______ _______ _____ _____    ______ ____
ROOT
ATOM      1  C   UNL     1      -3.760   3.608 -27.587  0.00  0.00    +0.193 C 
ATOM      2  N   UNL     1      -3.357   3.544 -26.353  0.00  0.00    +0.245 N 
ATOM      3  C   UNL     1      -4.636   3.684 -26.166  0.00  0.00    +0.138 C 
ATOM      4  C   UNL     1      -5.115   3.718 -24.958  0.00  0.00    +0.086 C 
ATOM      5  C   UNL     1      -4.316   3.613 -23.938  0.00  0.00    -0.030 A 
ATOM      6  C   UNL     1      -4.797   3.648 -22.731  0.00  0.00    +0.054 A 
ATOM      7  C   UNL     1      -3.997   3.543 -21.710  0.00  0.00    +0.167 A 
ATOM      8  C   UNL     1      -2.719   3.403 -21.897  0.00  0.00    +0.174 A 
ATOM      9  O   UNL     1      -2.148   3.321 -20.733  0.00  0.00    -0.452 OA
ATOM     10  C   UNL     1      -3.074   3.410 -19.825  0.00  0.00    +0.466 C 
ATOM     11  C   UNL     1      -2.238   3.368 -23.106  0.00  0.00    +0.037 A 
ATOM     12  C   UNL     1      -0.960   3.228 -23.293  0.00  0.00    -0.010 A 
ATOM     13  C   UNL     1      -0.161   3.123 -22.273  0.00  0.00    +0.009 A 
ATOM     14  C   UNL     1       1.118   2.983 -22.460  0.00  0.00    +0.001 A 
ATOM     15  C   UNL     1       1.597   2.948 -23.668  0.00  0.00    +0.000 A 
ATOM     16  C   UNL     1       0.798   3.053 -24.688  0.00  0.00    +0.004 A 
ATOM     17  C   UNL     1      -0.480   3.193 -24.501  0.00  0.00    -0.034 A 
ATOM     18  C   UNL     1      -1.279   3.299 -25.522  0.00  0.00    +0.095 C 
ATOM     19  O   UNL     1      -4.217   3.547 -20.429  0.00  0.00    -0.453 OA
ATOM     20  C   UNL     1      -3.038   3.473 -24.126  0.00  0.00    +0.015 A 
ATOM     21  C   UNL     1      -2.218   3.426 -26.970  0.00  0.00    +0.193 C 
ATOM     22  C   UNL     1      -2.558   3.439 -25.334  0.00  0.00    +0.102 C 
ENDROOT
TORSDOF 0
ENDMDL
MODEL 5
REMARK VINA RESULT:    -8.133      2.257      4.319
REMARK INTER + INTRA:          -8.133
REMARK INTER:                  -8.133
REMARK INTRA:                   0.000
REMARK UNBOUND:                 0.000
REMARK  Name = ZINC000000338173
REMARK  2 active torsions:
REMARK  status: ('A' for Active; 'I' for Inactive)
REMARK    1  A    between atoms: C_1  and  N_2
REMARK    2  A    between atoms: N_2  and  C_3
REMARK                            x       y       z     vdW  Elec       q    Type
REMARK                         _______ _______ _______ _____ _____    ______ ____
ROOT
ATOM      1  C   UNL     1      -5.154   3.723 -23.372  0.00  0.00    +0.193 C 
ATOM      2  N   UNL     1      -3.895   3.436 -23.218  0.00  0.00    +0.245 N 
ATOM      3  C   UNL     1      -4.370   2.985 -22.095  0.00  0.00    +0.138 C 
ATOM      4  C   UNL     1      -3.572   2.438 -21.226  0.00  0.00    +0.086 C 
ATOM      5  C   UNL     1      -2.301   2.342 -21.480  0.00  0.00    -0.030 A 
ATOM      6  C   UNL     1      -1.504   1.795 -20.611  0.00  0.00    +0.054 A 
ATOM      7  C   UNL     1      -0.232   1.699 -20.865  0.00  0.00    +0.167 A 
ATOM      8  C   UNL     1       0.242   2.149 -21.988  0.00  0.00    +0.174 A 
ATOM      9  O   UNL     1       1.523   1.936 -21.999  0.00  0.00    -0.452 OA
ATOM     10  C   UNL     1       1.843   1.353 -20.881  0.00  0.00    +0.466 C 
ATOM     11  C   UNL     1      -0.556   2.697 -22.859  0.00  0.00    +0.037 A 
ATOM     12  C   UNL     1      -0.082   3.147 -23.982  0.00  0.00    -0.010 A 
ATOM     13  C   UNL     1       1.189   3.051 -24.236  0.00  0.00    +0.009 A 
ATOM     14  C   UNL     1       1.664   3.501 -25.359  0.00  0.00    +0.001 A 
ATOM     15  C   UNL     1       0.866   4.048 -26.228  0.00  0.00    +0.000 A 
ATOM     16  C   UNL     1      -0.405   4.144 -25.974  0.00  0.00    +0.004 A 
ATOM     17  C   UNL     1      -0.879   3.694 -24.851  0.00  0.00    -0.034 A 
ATOM     18  C   UNL     1      -2.151   3.790 -24.596  0.00  0.00    +0.095 C 
ATOM     19  O   UNL     1       0.757   1.207 -20.181  0.00  0.00    -0.453 OA
ATOM     20  C   UNL     1      -1.827   2.792 -22.603  0.00  0.00    +0.015 A 
ATOM     21  C   UNL     1      -3.859   3.986 -24.395  0.00  0.00    +0.193 C 
ATOM     22  C   UNL     1      -2.625   3.340 -23.473  0.00  0.00    +0.102 C 
ENDROOT
TORSDOF 0
ENDMDL
