MODEL 1
REMARK VINA RESULT:   -11.304      0.000      0.000
REMARK INTER + INTRA:         -12.117
REMARK INTER:                 -11.967
REMARK INTRA:                  -0.151
REMARK UNBOUND:                -0.153
REMARK  Name = COc1ccc2c3c1O[C@]1(C)C(=O)C=C[C@]4(Br)[C@@H](C2)N(C)CC[C@@]314       ZINC000100393733
REMARK  4 active torsions:
REMARK  status: ('A' for Active; 'I' for Inactive)
REMARK    1  A    between atoms: C_1  and  O_2
REMARK    2  A    between atoms: O_2  and  C_3
REMARK    3  A    between atoms: C_10  and  C_11
REMARK    4  A    between atoms: N_20  and  C_21
REMARK                            x       y       z     vdW  Elec       q    Type
REMARK                         _______ _______ _______ _____ _____    ______ ____
ROOT
ATOM      1  C   UNL     1       0.430   2.180 -23.233  0.00  0.00    +0.162 A 
ATOM      2  C   UNL     1       0.368   1.814 -22.022  0.00  0.00    +0.050 A 
ATOM      3  C   UNL     1      -0.715   1.871 -21.395  0.00  0.00    +0.008 A 
ATOM      4  C   UNL     1      -1.746   2.292 -21.969  0.00  0.00    -0.034 A 
ATOM      5  C   UNL     1      -1.708   2.662 -23.177  0.00  0.00    +0.014 A 
ATOM      6  C   UNL     1      -2.740   3.082 -23.747  0.00  0.00    +0.075 C 
ATOM      7  C   UNL     1      -3.848   3.577 -24.499  0.00  0.00    +0.069 C 
ATOM      8  C   UNL     1      -5.083   3.651 -23.817  0.00  0.00    +0.132 C 
ATOM      9  N   UNL     1      -5.114   3.237 -22.471  0.00  0.00    +0.237 N 
ATOM     10  H   UNL     1      -5.987   3.275 -21.944  0.00  0.00    +0.203 HD
ATOM     11  C   UNL     1      -6.169   3.272 -21.798  0.00  0.00    +0.191 C 
ATOM     12  C   UNL     1      -3.887   2.773 -21.909  0.00  0.00    +0.090 C 
ATOM     13  C   UNL     1      -3.820   3.137 -23.119  0.00  0.00    +0.101 C 
ATOM     14 BR   UNL     1      -2.790   2.716 -22.542  0.00  0.00    -0.073 Br
ATOM     15  C   UNL     1      -4.868   3.561 -23.689  0.00  0.00    +0.001 C 
ATOM     16  C   UNL     1      -4.821   3.927 -24.890  0.00  0.00    +0.048 C 
ATOM     17  C   UNL     1      -3.731   3.875 -25.537  0.00  0.00    +0.200 C 
ATOM     18  O   UNL     1      -3.689   4.241 -26.733  0.00  0.00    -0.288 OA
ATOM     19  C   UNL     1      -2.694   3.453 -24.966  0.00  0.00    +0.181 C 
ATOM     20  C   UNL     1      -2.361   3.744 -26.141  0.00  0.00    +0.065 C 
ATOM     21  O   UNL     1      -1.217   3.144 -25.081  0.00  0.00    -0.473 OA
ATOM     22  C   UNL     1      -2.855   2.353 -21.337  0.00  0.00    +0.091 C 
ATOM     23  C   UNL     1      -0.616   2.606 -23.812  0.00  0.00    +0.168 A 
ENDROOT
BRANCH   1  25
ATOM     24  C   UNL     1       2.192   3.160 -24.036  0.00  0.00    +0.277 C 
ATOM     25  O   UNL     1       1.515   2.121 -23.856  0.00  0.00    -0.491 OA
ENDBRANCH   1  25
TORSDOF 1
ENDMDL
MODEL 2
REMARK VINA RESULT:   -10.798      1.955      3.147
REMARK INTER + INTRA:         -11.581
REMARK INTER:                 -11.464
REMARK INTRA:                  -0.118
REMARK UNBOUND:                -0.153
REMARK  Name = COc1ccc2c3c1O[C@]1(C)C(=O)C=C[C@]4(Br)[C@@H](C2)N(C)CC[C@@]314       ZINC000100393733
REMARK  4 active torsions:
REMARK  status: ('A' for Active; 'I' for Inactive)
REMARK    1  A    between atoms: C_1  and  O_2
REMARK    2  A    between atoms: O_2  and  C_3
REMARK    3  A    between atoms: C_10  and  C_11
REMARK    4  A    between atoms: N_20  and  C_21
REMARK                            x       y       z     vdW  Elec       q    Type
REMARK                         _______ _______ _______ _____ _____    ______ ____
ROOT
ATOM      1  C   UNL     1       0.180   1.872 -21.604  0.00  0.00    +0.162 A 
ATOM      2  C   UNL     1       1.012   1.970 -22.553  0.00  0.00    +0.050 A 
ATOM      3  C   UNL     1       0.655   2.413 -23.670  0.00  0.00    +0.008 A 
ATOM      4  C   UNL     1      -0.534   2.761 -23.850  0.00  0.00    -0.034 A 
ATOM      5  C   UNL     1      -1.383   2.672 -22.917  0.00  0.00    +0.014 A 
ATOM      6  C   UNL     1      -2.571   3.021 -23.101  0.00  0.00    +0.075 C 
ATOM      7  C   UNL     1      -3.947   3.387 -23.194  0.00  0.00    +0.069 C 
ATOM      8  C   UNL     1      -4.379   3.889 -24.441  0.00  0.00    +0.132 C 
ATOM      9  N   UNL     1      -3.425   3.984 -25.474  0.00  0.00    +0.237 N 
ATOM     10  H   UNL     1      -3.698   4.342 -26.390  0.00  0.00    +0.203 HD
ATOM     11  C   UNL     1      -3.728   4.419 -26.609  0.00  0.00    +0.191 C 
ATOM     12  C   UNL     1      -2.097   3.562 -25.168  0.00  0.00    +0.090 C 
ATOM     13  C   UNL     1      -2.925   3.462 -24.216  0.00  0.00    +0.101 C 
ATOM     14 BR   UNL     1      -1.734   3.114 -24.039  0.00  0.00    -0.073 Br
ATOM     15  C   UNL     1      -4.125   3.817 -24.409  0.00  0.00    +0.001 C 
ATOM     16  C   UNL     1      -4.961   3.725 -23.477  0.00  0.00    +0.048 C 
ATOM     17  C   UNL     1      -4.614   3.279 -22.342  0.00  0.00    +0.200 C 
ATOM     18  O   UNL     1      -5.450   3.189 -21.415  0.00  0.00    -0.288 OA
ATOM     19  C   UNL     1      -3.420   2.928 -22.156  0.00  0.00    +0.181 C 
ATOM     20  C   UNL     1      -4.023   2.731 -21.072  0.00  0.00    +0.065 C 
ATOM     21  O   UNL     1      -2.396   2.371 -21.191  0.00  0.00    -0.473 OA
ATOM     22  C   UNL     1      -0.908   3.213 -24.986  0.00  0.00    +0.091 C 
ATOM     23  C   UNL     1      -1.025   2.226 -21.790  0.00  0.00    +0.168 A 
ENDROOT
BRANCH   1  25
ATOM     24  C   UNL     1       1.755   1.431 -20.177  0.00  0.00    +0.277 C 
ATOM     25  O   UNL     1       0.542   1.430 -20.490  0.00  0.00    -0.491 OA
ENDBRANCH   1  25
TORSDOF 1
ENDMDL
MODEL 3
REMARK VINA RESULT:   -10.732      2.130      5.397
REMARK INTER + INTRA:         -11.512
REMARK INTER:                 -11.430
REMARK INTRA:                  -0.082
REMARK UNBOUND:                -0.153
REMARK  Name = COc1ccc2c3c1O[C@]1(C)C(=O)C=C[C@]4(Br)[C@@H](C2)N(C)CC[C@@]314       ZINC000100393733
REMARK  4 active torsions:
REMARK  status: ('A' for Active; 'I' for Inactive)
REMARK    1  A    between atoms: C_1  and  O_2
REMARK    2  A    between atoms: O_2  and  C_3
REMARK    3  A    between atoms: C_10  and  C_11
REMARK    4  A    between atoms: N_20  and  C_21
REMARK                            x       y       z     vdW  Elec       q    Type
REMARK                         _______ _______ _______ _____ _____    ______ ____
ROOT
ATOM      1  C   UNL     1      -4.629   3.707 -23.055  0.00  0.00    +0.162 A 
ATOM      2  C   UNL     1      -4.813   4.148 -24.228  0.00  0.00    +0.050 A 
ATOM      3  C   UNL     1      -3.877   4.153 -25.060  0.00  0.00    +0.008 A 
ATOM      4  C   UNL     1      -2.749   3.719 -24.732  0.00  0.00    -0.034 A 
ATOM      5  C   UNL     1      -2.541   3.274 -23.567  0.00  0.00    +0.014 A 
ATOM      6  C   UNL     1      -1.413   2.841 -23.243  0.00  0.00    +0.075 C 
ATOM      7  C   UNL     1      -0.172   2.324 -22.762  0.00  0.00    +0.069 C 
ATOM      8  C   UNL     1       0.901   2.318 -23.679  0.00  0.00    +0.132 C 
ATOM      9  N   UNL     1       0.659   2.816 -24.974  0.00  0.00    +0.237 N 
ATOM     10  H   UNL     1       1.409   2.829 -25.666  0.00  0.00    +0.203 HD
ATOM     11  C   UNL     1       1.558   2.845 -25.845  0.00  0.00    +0.191 C 
ATOM     12  C   UNL     1      -0.659   3.288 -25.249  0.00  0.00    +0.090 C 
ATOM     13  C   UNL     1      -0.480   2.848 -24.076  0.00  0.00    +0.101 C 
ATOM     14 BR   UNL     1      -1.608   3.283 -24.408  0.00  0.00    -0.073 Br
ATOM     15  C   UNL     1       0.664   2.411 -23.755  0.00  0.00    +0.001 C 
ATOM     16  C   UNL     1       0.862   1.971 -22.595  0.00  0.00    +0.048 C 
ATOM     17  C   UNL     1      -0.076   1.959 -21.742  0.00  0.00    +0.200 C 
ATOM     18  O   UNL     1       0.125   1.519 -20.588  0.00  0.00    -0.288 OA
ATOM     19  C   UNL     1      -1.211   2.394 -22.067  0.00  0.00    +0.181 C 
ATOM     20  C   UNL     1      -1.299   2.024 -20.871  0.00  0.00    +0.065 C 
ATOM     21  O   UNL     1      -2.637   2.664 -21.640  0.00  0.00    -0.473 OA
ATOM     22  C   UNL     1      -1.788   3.721 -25.575  0.00  0.00    +0.091 C 
ATOM     23  C   UNL     1      -3.484   3.268 -22.726  0.00  0.00    +0.168 A 
ENDROOT
BRANCH   1  25
ATOM     24  C   UNL     1      -5.971   2.622 -21.739  0.00  0.00    +0.277 C 
ATOM     25  O   UNL     1      -5.567   3.703 -22.226  0.00  0.00    -0.491 OA
ENDBRANCH   1  25
TORSDOF 1
ENDMDL
MODEL 4
REMARK VINA RESULT:   -10.692      1.829      3.119
REMARK INTER + INTRA:         -11.469
REMARK INTER:                 -11.346
REMARK INTRA:                  -0.123
REMARK UNBOUND:                -0.153
REMARK  Name = COc1ccc2c3c1O[C@]1(C)C(=O)C=C[C@]4(Br)[C@@H](C2)N(C)CC[C@@]314       ZINC000100393733
REMARK  4 active torsions:
REMARK  status: ('A' for Active; 'I' for Inactive)
REMARK    1  A    between atoms: C_1  and  O_2
REMARK    2  A    between atoms: O_2  and  C_3
REMARK    3  A    between atoms: C_10  and  C_11
REMARK    4  A    between atoms: N_20  and  C_21
REMARK                            x       y       z     vdW  Elec       q    Type
REMARK                         _______ _______ _______ _____ _____    ______ ____
ROOT
ATOM      1  C   UNL     1       1.105   3.083 -23.430  0.00  0.00    +0.162 A 
ATOM      2  C   UNL     1       1.249   3.200 -24.682  0.00  0.00    +0.050 A 
ATOM      3  C   UNL     1       0.253   3.354 -25.426  0.00  0.00    +0.008 A 
ATOM      4  C   UNL     1      -0.896   3.393 -24.928  0.00  0.00    -0.034 A 
ATOM      5  C   UNL     1      -1.064   3.278 -23.680  0.00  0.00    +0.014 A 
ATOM      6  C   UNL     1      -2.213   3.318 -23.186  0.00  0.00    +0.075 C 
ATOM      7  C   UNL     1      -3.471   3.347 -22.512  0.00  0.00    +0.069 C 
ATOM      8  C   UNL     1      -4.613   3.520 -23.325  0.00  0.00    +0.132 C 
ATOM      9  N   UNL     1      -4.414   3.646 -24.714  0.00  0.00    +0.237 N 
ATOM     10  H   UNL     1      -5.214   3.772 -25.335  0.00  0.00    +0.203 HD
ATOM     11  C   UNL     1      -5.374   3.802 -25.503  0.00  0.00    +0.191 C 
ATOM     12  C   UNL     1      -3.068   3.589 -25.183  0.00  0.00    +0.090 C 
ATOM     13  C   UNL     1      -3.206   3.471 -23.930  0.00  0.00    +0.101 C 
ATOM     14 BR   UNL     1      -2.058   3.433 -24.432  0.00  0.00    -0.073 Br
ATOM     15  C   UNL     1      -4.372   3.512 -23.437  0.00  0.00    +0.001 C 
ATOM     16  C   UNL     1      -4.529   3.398 -22.196  0.00  0.00    +0.048 C 
ATOM     17  C   UNL     1      -3.530   3.241 -21.432  0.00  0.00    +0.200 C 
ATOM     18  O   UNL     1      -3.691   3.128 -20.196  0.00  0.00    -0.288 OA
ATOM     19  C   UNL     1      -2.375   3.202 -21.927  0.00  0.00    +0.181 C 
ATOM     20  C   UNL     1      -2.236   3.064 -20.687  0.00  0.00    +0.065 C 
ATOM     21  O   UNL     1      -0.889   3.060 -21.675  0.00  0.00    -0.473 OA
ATOM     22  C   UNL     1      -1.918   3.550 -25.678  0.00  0.00    +0.091 C 
ATOM     23  C   UNL     1      -0.060   3.123 -22.928  0.00  0.00    +0.168 A 
ENDROOT
BRANCH   1  25
ATOM     24  C   UNL     1       3.140   3.607 -22.885  0.00  0.00    +0.277 C 
ATOM     25  O   UNL     1       2.104   2.930 -22.691  0.00  0.00    -0.491 OA
ENDBRANCH   1  25
TORSDOF 1
ENDMDL
MODEL 5
REMARK VINA RESULT:   -10.476      1.248      1.778
REMARK INTER + INTRA:         -11.241
REMARK INTER:                 -11.100
REMARK INTRA:                  -0.142
REMARK UNBOUND:                -0.153
REMARK  Name = COc1ccc2c3c1O[C@]1(C)C(=O)C=C[C@]4(Br)[C@@H](C2)N(C)CC[C@@]314       ZINC000100393733
REMARK  4 active torsions:
REMARK  status: ('A' for Active; 'I' for Inactive)
REMARK    1  A    between atoms: C_1  and  O_2
REMARK    2  A    between atoms: O_2  and  C_3
REMARK    3  A    between atoms: C_10  and  C_11
REMARK    4  A    between atoms: N_20  and  C_21
REMARK                            x       y       z     vdW  Elec       q    Type
REMARK                         _______ _______ _______ _____ _____    ______ ____
ROOT
ATOM      1  C   UNL     1       2.130   1.964 -23.267  0.00  0.00    +0.162 A 
ATOM      2  C   UNL     1       2.239   1.531 -22.082  0.00  0.00    +0.050 A 
ATOM      3  C   UNL     1       1.238   1.473 -21.332  0.00  0.00    +0.008 A 
ATOM      4  C   UNL     1       0.119   1.845 -21.755  0.00  0.00    -0.034 A 
ATOM      5  C   UNL     1      -0.013   2.281 -22.935  0.00  0.00    +0.014 A 
ATOM      6  C   UNL     1      -1.132   2.652 -23.354  0.00  0.00    +0.075 C 
ATOM      7  C   UNL     1      -2.354   3.101 -23.941  0.00  0.00    +0.069 C 
ATOM      8  C   UNL     1      -3.500   3.046 -23.117  0.00  0.00    +0.132 C 
ATOM      9  N   UNL     1      -3.341   2.560 -21.805  0.00  0.00    +0.237 N 
ATOM     10  H   UNL     1      -4.145   2.505 -21.179  0.00  0.00    +0.203 HD
ATOM     11  C   UNL     1      -4.308   2.480 -21.013  0.00  0.00    +0.191 C 
ATOM     12  C   UNL     1      -2.027   2.161 -21.418  0.00  0.00    +0.090 C 
ATOM     13  C   UNL     1      -2.130   2.592 -22.604  0.00  0.00    +0.101 C 
ATOM     14 BR   UNL     1      -1.013   2.219 -22.176  0.00  0.00    -0.073 Br
ATOM     15  C   UNL     1      -3.266   2.966 -23.021  0.00  0.00    +0.001 C 
ATOM     16  C   UNL     1      -3.388   3.397 -24.195  0.00  0.00    +0.048 C 
ATOM     17  C   UNL     1      -2.384   3.462 -24.965  0.00  0.00    +0.200 C 
ATOM     18  O   UNL     1      -2.510   3.892 -26.134  0.00  0.00    -0.288 OA
ATOM     19  C   UNL     1      -1.258   3.090 -24.545  0.00  0.00    +0.181 C 
ATOM     20  C   UNL     1      -1.089   3.466 -25.730  0.00  0.00    +0.065 C 
ATOM     21  O   UNL     1       0.212   2.899 -24.849  0.00  0.00    -0.473 OA
ATOM     22  C   UNL     1      -0.908   1.789 -20.997  0.00  0.00    +0.091 C 
ATOM     23  C   UNL     1       0.996   2.340 -23.694  0.00  0.00    +0.168 A 
ENDROOT
BRANCH   1  25
ATOM     24  C   UNL     1       4.007   2.900 -23.827  0.00  0.00    +0.277 C 
ATOM     25  O   UNL     1       3.134   2.021 -24.014  0.00  0.00    -0.491 OA
ENDBRANCH   1  25
TORSDOF 1
ENDMDL
MODEL 6
REMARK VINA RESULT:    -9.899      3.187      6.959
REMARK INTER + INTRA:         -10.630
REMARK INTER:                 -10.502
REMARK INTRA:                  -0.127
REMARK UNBOUND:                -0.153
REMARK  Name = COc1ccc2c3c1O[C@]1(C)C(=O)C=C[C@]4(Br)[C@@H](C2)N(C)CC[C@@]314       ZINC000100393733
REMARK  4 active torsions:
REMARK  status: ('A' for Active; 'I' for Inactive)
REMARK    1  A    between atoms: C_1  and  O_2
REMARK    2  A    between atoms: O_2  and  C_3
REMARK    3  A    between atoms: C_10  and  C_11
REMARK    4  A    between atoms: N_20  and  C_21
REMARK                            x       y       z     vdW  Elec       q    Type
REMARK                         _______ _______ _______ _____ _____    ______ ____
ROOT
ATOM      1  C   UNL     1      -0.844   3.027 -23.605  0.00  0.00    +0.162 A 
ATOM      2  C   UNL     1      -0.926   4.235 -23.973  0.00  0.00    +0.050 A 
ATOM      3  C   UNL     1       0.086   4.974 -23.964  0.00  0.00    +0.008 A 
ATOM      4  C   UNL     1       1.188   4.515 -23.587  0.00  0.00    -0.034 A 
ATOM      5  C   UNL     1       1.294   3.312 -23.214  0.00  0.00    +0.014 A 
ATOM      6  C   UNL     1       2.398   2.857 -22.838  0.00  0.00    +0.075 C 
ATOM      7  C   UNL     1       3.599   2.229 -22.390  0.00  0.00    +0.069 C 
ATOM      8  C   UNL     1       4.757   3.039 -22.368  0.00  0.00    +0.132 C 
ATOM      9  N   UNL     1       4.627   4.378 -22.785  0.00  0.00    +0.237 N 
ATOM     10  H   UNL     1       5.440   4.995 -22.784  0.00  0.00    +0.203 HD
ATOM     11  C   UNL     1       5.606   5.160 -22.795  0.00  0.00    +0.191 C 
ATOM     12  C   UNL     1       3.329   4.804 -23.196  0.00  0.00    +0.090 C 
ATOM     13  C   UNL     1       3.406   3.595 -22.829  0.00  0.00    +0.101 C 
ATOM     14 BR   UNL     1       2.304   4.058 -23.207  0.00  0.00    -0.073 Br
ATOM     15  C   UNL     1       4.526   3.142 -22.450  0.00  0.00    +0.001 C 
ATOM     16  C   UNL     1       4.622   1.945 -22.081  0.00  0.00    +0.048 C 
ATOM     17  C   UNL     1       3.606   1.186 -22.086  0.00  0.00    +0.200 C 
ATOM     18  O   UNL     1       3.707  -0.006 -21.718  0.00  0.00    -0.288 OA
ATOM     19  C   UNL     1       2.497   1.642 -22.464  0.00  0.00    +0.181 C 
ATOM     20  C   UNL     1       2.303   0.440 -22.158  0.00  0.00    +0.065 C 
ATOM     21  O   UNL     1       1.029   1.369 -22.710  0.00  0.00    -0.473 OA
ATOM     22  C   UNL     1       2.226   5.261 -23.573  0.00  0.00    +0.091 C 
ATOM     23  C   UNL     1       0.275   2.565 -23.223  0.00  0.00    +0.168 A 
ENDROOT
BRANCH   1  25
ATOM     24  C   UNL     1      -2.915   2.672 -23.061  0.00  0.00    +0.277 C 
ATOM     25  O   UNL     1      -1.858   2.292 -23.616  0.00  0.00    -0.491 OA
ENDBRANCH   1  25
TORSDOF 1
ENDMDL
MODEL 7
REMARK VINA RESULT:    -9.882      2.380      3.934
REMARK INTER + INTRA:         -10.612
REMARK INTER:                 -10.496
REMARK INTRA:                  -0.116
REMARK UNBOUND:                -0.153
REMARK  Name = COc1ccc2c3c1O[C@]1(C)C(=O)C=C[C@]4(Br)[C@@H](C2)N(C)CC[C@@]314       ZINC000100393733
REMARK  4 active torsions:
REMARK  status: ('A' for Active; 'I' for Inactive)
REMARK    1  A    between atoms: C_1  and  O_2
REMARK    2  A    between atoms: O_2  and  C_3
REMARK    3  A    between atoms: C_10  and  C_11
REMARK    4  A    between atoms: N_20  and  C_21
REMARK                            x       y       z     vdW  Elec       q    Type
REMARK                         _______ _______ _______ _____ _____    ______ ____
ROOT
ATOM      1  C   UNL     1       2.789   2.526 -22.363  0.00  0.00    +0.162 A 
ATOM      2  C   UNL     1       3.374   2.840 -23.441  0.00  0.00    +0.050 A 
ATOM      3  C   UNL     1       2.711   3.122 -24.466  0.00  0.00    +0.008 A 
ATOM      4  C   UNL     1       1.460   3.093 -24.427  0.00  0.00    -0.034 A 
ATOM      5  C   UNL     1       0.854   2.782 -23.361  0.00  0.00    +0.014 A 
ATOM      6  C   UNL     1      -0.397   2.754 -23.326  0.00  0.00    +0.075 C 
ATOM      7  C   UNL     1      -1.814   2.689 -23.166  0.00  0.00    +0.069 C 
ATOM      8  C   UNL     1      -2.587   3.002 -24.306  0.00  0.00    +0.132 C 
ATOM      9  N   UNL     1      -1.902   3.347 -25.487  0.00  0.00    +0.237 N 
ATOM     10  H   UNL     1      -2.424   3.580 -26.332  0.00  0.00    +0.203 HD
ATOM     11  C   UNL     1      -2.514   3.638 -26.540  0.00  0.00    +0.191 C 
ATOM     12  C   UNL     1      -0.476   3.351 -25.430  0.00  0.00    +0.090 C 
ATOM     13  C   UNL     1      -1.056   3.036 -24.349  0.00  0.00    +0.101 C 
ATOM     14 BR   UNL     1       0.196   3.066 -24.393  0.00  0.00    -0.073 Br
ATOM     15  C   UNL     1      -2.322   3.010 -24.321  0.00  0.00    +0.001 C 
ATOM     16  C   UNL     1      -2.916   2.700 -23.258  0.00  0.00    +0.048 C 
ATOM     17  C   UNL     1      -2.258   2.412 -22.213  0.00  0.00    +0.200 C 
ATOM     18  O   UNL     1      -2.853   2.103 -21.156  0.00  0.00    -0.288 OA
ATOM     19  C   UNL     1      -1.001   2.440 -22.248  0.00  0.00    +0.181 C 
ATOM     20  C   UNL     1      -1.318   2.103 -21.081  0.00  0.00    +0.065 C 
ATOM     21  O   UNL     1       0.295   2.243 -21.492  0.00  0.00    -0.473 OA
ATOM     22  C   UNL     1       0.775   3.379 -25.467  0.00  0.00    +0.091 C 
ATOM     23  C   UNL     1       1.520   2.497 -22.326  0.00  0.00    +0.168 A 
ENDROOT
BRANCH   1  25
ATOM     24  C   UNL     1       4.704   2.175 -21.405  0.00  0.00    +0.277 C 
ATOM     25  O   UNL     1       3.455   2.245 -21.341  0.00  0.00    -0.491 OA
ENDBRANCH   1  25
TORSDOF 1
ENDMDL
MODEL 8
REMARK VINA RESULT:    -8.565      3.709      5.302
REMARK INTER + INTRA:          -9.219
REMARK INTER:                  -9.070
REMARK INTRA:                  -0.149
REMARK UNBOUND:                -0.153
REMARK  Name = COc1ccc2c3c1O[C@]1(C)C(=O)C=C[C@]4(Br)[C@@H](C2)N(C)CC[C@@]314       ZINC000100393733
REMARK  4 active torsions:
REMARK  status: ('A' for Active; 'I' for Inactive)
REMARK    1  A    between atoms: C_1  and  O_2
REMARK    2  A    between atoms: O_2  and  C_3
REMARK    3  A    between atoms: C_10  and  C_11
REMARK    4  A    between atoms: N_20  and  C_21
REMARK                            x       y       z     vdW  Elec       q    Type
REMARK                         _______ _______ _______ _____ _____    ______ ____
ROOT
ATOM      1  C   UNL     1       5.574   2.612 -22.656  0.00  0.00    +0.162 A 
ATOM      2  C   UNL     1       5.681   1.464 -22.135  0.00  0.00    +0.050 A 
ATOM      3  C   UNL     1       4.659   0.815 -21.810  0.00  0.00    +0.008 A 
ATOM      4  C   UNL     1       3.523   1.305 -22.001  0.00  0.00    -0.034 A 
ATOM      5  C   UNL     1       3.392   2.451 -22.520  0.00  0.00    +0.014 A 
ATOM      6  C   UNL     1       2.255   2.937 -22.710  0.00  0.00    +0.075 C 
ATOM      7  C   UNL     1       1.014   3.592 -22.973  0.00  0.00    +0.069 C 
ATOM      8  C   UNL     1      -0.155   2.884 -22.617  0.00  0.00    +0.132 C 
ATOM      9  N   UNL     1       0.002   1.609 -22.040  0.00  0.00    +0.237 N 
ATOM     10  H   UNL     1      -0.818   1.066 -21.769  0.00  0.00    +0.203 HD
ATOM     11  C   UNL     1      -0.984   0.918 -21.697  0.00  0.00    +0.191 C 
ATOM     12  C   UNL     1       1.338   1.139 -21.864  0.00  0.00    +0.090 C 
ATOM     13  C   UNL     1       1.237   2.288 -22.385  0.00  0.00    +0.101 C 
ATOM     14 BR   UNL     1       2.373   1.794 -22.192  0.00  0.00    -0.073 Br
ATOM     15  C   UNL     1       0.083   2.774 -22.574  0.00  0.00    +0.001 C 
ATOM     16  C   UNL     1      -0.037   3.913 -23.090  0.00  0.00    +0.048 C 
ATOM     17  C   UNL     1       0.988   4.581 -23.424  0.00  0.00    +0.200 C 
ATOM     18  O   UNL     1       0.863   5.715 -23.937  0.00  0.00    -0.288 OA
ATOM     19  C   UNL     1       2.131   4.093 -23.233  0.00  0.00    +0.181 C 
ATOM     20  C   UNL     1       2.307   5.222 -23.753  0.00  0.00    +0.065 C 
ATOM     21  O   UNL     1       3.628   4.277 -23.360  0.00  0.00    -0.473 OA
ATOM     22  C   UNL     1       2.475   0.651 -21.673  0.00  0.00    +0.091 C 
ATOM     23  C   UNL     1       4.421   3.107 -22.849  0.00  0.00    +0.168 A 
ENDROOT
BRANCH   1  25
ATOM     24  C   UNL     1       7.202   3.945 -22.124  0.00  0.00    +0.277 C 
ATOM     25  O   UNL     1       6.598   3.257 -22.979  0.00  0.00    -0.491 OA
ENDBRANCH   1  25
TORSDOF 1
ENDMDL
