MODEL 1
REMARK VINA RESULT:    -8.077      0.000      0.000
REMARK INTER + INTRA:          -8.077
REMARK INTER:                  -8.077
REMARK INTRA:                   0.000
REMARK UNBOUND:                 0.000
REMARK  Name = ZINC000006091631
REMARK  0 active torsions:
REMARK  status: ('A' for Active; 'I' for Inactive)
REMARK                            x       y       z     vdW  Elec       q    Type
REMARK                         _______ _______ _______ _____ _____    ______ ____
ROOT
ATOM      1  O   UNL     1       2.005   1.187 -23.244  0.00  0.00    -0.245 OA
ATOM      2  C   UNL     1       0.840   1.548 -22.795  0.00  0.00    +0.337 A 
ATOM      3  C   UNL     1       0.591   1.500 -21.520  0.00  0.00    +0.092 A 
ATOM      4  C   UNL     1      -0.575   1.861 -21.072  0.00  0.00    +0.018 A 
ATOM      5  C   UNL     1      -1.491   2.271 -21.898  0.00  0.00    +0.018 A 
ATOM      6  C   UNL     1      -2.656   2.632 -21.450  0.00  0.00    +0.019 A 
ATOM      7  C   UNL     1      -3.572   3.041 -22.277  0.00  0.00    -0.002 A 
ATOM      8  C   UNL     1      -3.323   3.089 -23.552  0.00  0.00    +0.127 A 
ATOM      9  O   UNL     1      -4.389   3.528 -24.153  0.00  0.00    -0.491 OA
ATOM     10  C   UNL     1      -5.297   3.750 -23.250  0.00  0.00    +0.234 C 
ATOM     11  C   UNL     1      -2.158   2.728 -24.000  0.00  0.00    +0.092 A 
ATOM     12  C   UNL     1      -4.793   3.449 -22.090  0.00  0.00    +0.080 C 
ATOM     13  C   UNL     1      -1.242   2.319 -23.173  0.00  0.00    +0.143 A 
ATOM     14  O   UNL     1      -0.076   1.958 -23.622  0.00  0.00    -0.422 OA
ENDROOT
TORSDOF 0
ENDMDL
MODEL 2
REMARK VINA RESULT:    -8.046      0.792      4.642
REMARK INTER + INTRA:          -8.046
REMARK INTER:                  -8.046
REMARK INTRA:                   0.000
REMARK UNBOUND:                 0.000
REMARK  Name = ZINC000006091631
REMARK  0 active torsions:
REMARK  status: ('A' for Active; 'I' for Inactive)
REMARK                            x       y       z     vdW  Elec       q    Type
REMARK                         _______ _______ _______ _____ _____    ______ ____
ROOT
ATOM      1  O   UNL     1      -5.756   3.934 -23.951  0.00  0.00    -0.245 OA
ATOM      2  C   UNL     1      -4.735   3.515 -23.264  0.00  0.00    +0.337 A 
ATOM      3  C   UNL     1      -4.841   3.341 -21.980  0.00  0.00    +0.092 A 
ATOM      4  C   UNL     1      -3.819   2.922 -21.295  0.00  0.00    +0.018 A 
ATOM      5  C   UNL     1      -2.691   2.677 -21.893  0.00  0.00    +0.018 A 
ATOM      6  C   UNL     1      -1.669   2.258 -21.207  0.00  0.00    +0.019 A 
ATOM      7  C   UNL     1      -0.542   2.013 -21.805  0.00  0.00    -0.002 A 
ATOM      8  C   UNL     1      -0.435   2.187 -23.089  0.00  0.00    +0.127 A 
ATOM      9  O   UNL     1       0.778   1.877 -23.438  0.00  0.00    -0.491 OA
ATOM     10  C   UNL     1       1.422   1.511 -22.369  0.00  0.00    +0.234 C 
ATOM     11  C   UNL     1      -1.457   2.606 -23.775  0.00  0.00    +0.092 A 
ATOM     12  C   UNL     1       0.606   1.595 -21.360  0.00  0.00    +0.080 C 
ATOM     13  C   UNL     1      -2.584   2.851 -23.177  0.00  0.00    +0.143 A 
ATOM     14  O   UNL     1      -3.607   3.270 -23.862  0.00  0.00    -0.422 OA
ENDROOT
TORSDOF 0
ENDMDL
MODEL 3
REMARK VINA RESULT:    -7.786      1.598      5.104
REMARK INTER + INTRA:          -7.786
REMARK INTER:                  -7.786
REMARK INTRA:                   0.000
REMARK UNBOUND:                 0.000
REMARK  Name = ZINC000006091631
REMARK  0 active torsions:
REMARK  status: ('A' for Active; 'I' for Inactive)
REMARK                            x       y       z     vdW  Elec       q    Type
REMARK                         _______ _______ _______ _____ _____    ______ ____
ROOT
ATOM      1  O   UNL     1      -6.156   3.377 -22.036  0.00  0.00    -0.245 OA
ATOM      2  C   UNL     1      -5.105   3.496 -22.792  0.00  0.00    +0.337 A 
ATOM      3  C   UNL     1      -5.199   4.087 -23.946  0.00  0.00    +0.092 A 
ATOM      4  C   UNL     1      -4.148   4.207 -24.702  0.00  0.00    +0.018 A 
ATOM      5  C   UNL     1      -3.003   3.735 -24.304  0.00  0.00    +0.018 A 
ATOM      6  C   UNL     1      -1.953   3.854 -25.060  0.00  0.00    +0.019 A 
ATOM      7  C   UNL     1      -0.809   3.382 -24.662  0.00  0.00    -0.002 A 
ATOM      8  C   UNL     1      -0.716   2.791 -23.508  0.00  0.00    +0.127 A 
ATOM      9  O   UNL     1       0.518   2.414 -23.347  0.00  0.00    -0.491 OA
ATOM     10  C   UNL     1       1.188   2.772 -24.402  0.00  0.00    +0.234 C 
ATOM     11  C   UNL     1      -1.767   2.671 -22.752  0.00  0.00    +0.092 A 
ATOM     12  C   UNL     1       0.368   3.371 -25.215  0.00  0.00    +0.080 C 
ATOM     13  C   UNL     1      -2.910   3.143 -23.150  0.00  0.00    +0.143 A 
ATOM     14  O   UNL     1      -3.962   3.024 -22.394  0.00  0.00    -0.422 OA
ENDROOT
TORSDOF 0
ENDMDL
MODEL 4
REMARK VINA RESULT:    -7.674      2.145      4.586
REMARK INTER + INTRA:          -7.674
REMARK INTER:                  -7.674
REMARK INTRA:                   0.000
REMARK UNBOUND:                 0.000
REMARK  Name = ZINC000006091631
REMARK  0 active torsions:
REMARK  status: ('A' for Active; 'I' for Inactive)
REMARK                            x       y       z     vdW  Elec       q    Type
REMARK                         _______ _______ _______ _____ _____    ______ ____
ROOT
ATOM      1  O   UNL     1      -6.172   3.194 -22.101  0.00  0.00    -0.245 OA
ATOM      2  C   UNL     1      -4.890   3.392 -22.183  0.00  0.00    +0.337 A 
ATOM      3  C   UNL     1      -4.192   3.590 -21.104  0.00  0.00    +0.092 A 
ATOM      4  C   UNL     1      -2.910   3.788 -21.186  0.00  0.00    +0.018 A 
ATOM      5  C   UNL     1      -2.325   3.789 -22.348  0.00  0.00    +0.018 A 
ATOM      6  C   UNL     1      -1.044   3.987 -22.431  0.00  0.00    +0.019 A 
ATOM      7  C   UNL     1      -0.460   3.988 -23.592  0.00  0.00    -0.002 A 
ATOM      8  C   UNL     1      -1.158   3.790 -24.671  0.00  0.00    +0.127 A 
ATOM      9  O   UNL     1      -0.349   3.838 -25.687  0.00  0.00    -0.491 OA
ATOM     10  C   UNL     1       0.849   4.066 -25.237  0.00  0.00    +0.234 C 
ATOM     11  C   UNL     1      -2.439   3.592 -24.588  0.00  0.00    +0.092 A 
ATOM     12  C   UNL     1       0.781   4.158 -23.941  0.00  0.00    +0.080 C 
ATOM     13  C   UNL     1      -3.023   3.591 -23.427  0.00  0.00    +0.143 A 
ATOM     14  O   UNL     1      -4.306   3.393 -23.344  0.00  0.00    -0.422 OA
ENDROOT
TORSDOF 0
ENDMDL
MODEL 5
REMARK VINA RESULT:    -7.651      1.745      2.035
REMARK INTER + INTRA:          -7.651
REMARK INTER:                  -7.651
REMARK INTRA:                   0.000
REMARK UNBOUND:                 0.000
REMARK  Name = ZINC000006091631
REMARK  0 active torsions:
REMARK  status: ('A' for Active; 'I' for Inactive)
REMARK                            x       y       z     vdW  Elec       q    Type
REMARK                         _______ _______ _______ _____ _____    ______ ____
ROOT
ATOM      1  O   UNL     1       1.199   4.037 -25.879  0.00  0.00    -0.245 OA
ATOM      2  C   UNL     1       0.350   3.764 -24.934  0.00  0.00    +0.337 A 
ATOM      3  C   UNL     1       0.770   3.297 -23.796  0.00  0.00    +0.092 A 
ATOM      4  C   UNL     1      -0.080   3.025 -22.851  0.00  0.00    +0.018 A 
ATOM      5  C   UNL     1      -1.351   3.219 -23.044  0.00  0.00    +0.018 A 
ATOM      6  C   UNL     1      -2.201   2.947 -22.099  0.00  0.00    +0.019 A 
ATOM      7  C   UNL     1      -3.472   3.141 -22.293  0.00  0.00    -0.002 A 
ATOM      8  C   UNL     1      -3.892   3.608 -23.431  0.00  0.00    +0.127 A 
ATOM      9  O   UNL     1      -5.187   3.710 -23.370  0.00  0.00    -0.491 OA
ATOM     10  C   UNL     1      -5.567   3.305 -22.194  0.00  0.00    +0.234 C 
ATOM     11  C   UNL     1      -3.042   3.880 -24.375  0.00  0.00    +0.092 A 
ATOM     12  C   UNL     1      -4.507   2.954 -21.528  0.00  0.00    +0.080 C 
ATOM     13  C   UNL     1      -1.772   3.686 -24.182  0.00  0.00    +0.143 A 
ATOM     14  O   UNL     1      -0.921   3.958 -25.127  0.00  0.00    -0.422 OA
ENDROOT
TORSDOF 0
ENDMDL
MODEL 6
REMARK VINA RESULT:    -7.115      1.453      5.094
REMARK INTER + INTRA:          -7.115
REMARK INTER:                  -7.115
REMARK INTRA:                   0.000
REMARK UNBOUND:                 0.000
REMARK  Name = ZINC000006091631
REMARK  0 active torsions:
REMARK  status: ('A' for Active; 'I' for Inactive)
REMARK                            x       y       z     vdW  Elec       q    Type
REMARK                         _______ _______ _______ _____ _____    ______ ____
ROOT
ATOM      1  O   UNL     1      -4.940   3.094 -22.193  0.00  0.00    -0.245 OA
ATOM      2  C   UNL     1      -3.679   3.042 -22.505  0.00  0.00    +0.337 A 
ATOM      3  C   UNL     1      -3.249   3.635 -23.579  0.00  0.00    +0.092 A 
ATOM      4  C   UNL     1      -1.988   3.582 -23.890  0.00  0.00    +0.018 A 
ATOM      5  C   UNL     1      -1.156   2.936 -23.127  0.00  0.00    +0.018 A 
ATOM      6  C   UNL     1       0.104   2.883 -23.438  0.00  0.00    +0.019 A 
ATOM      7  C   UNL     1       0.935   2.238 -22.675  0.00  0.00    -0.002 A 
ATOM      8  C   UNL     1       0.506   1.645 -21.601  0.00  0.00    +0.127 A 
ATOM      9  O   UNL     1       1.522   1.078 -21.021  0.00  0.00    -0.491 OA
ATOM     10  C   UNL     1       2.579   1.321 -21.737  0.00  0.00    +0.234 C 
ATOM     11  C   UNL     1      -0.755   1.697 -21.290  0.00  0.00    +0.092 A 
ATOM     12  C   UNL     1       2.217   2.038 -22.760  0.00  0.00    +0.080 C 
ATOM     13  C   UNL     1      -1.586   2.343 -22.053  0.00  0.00    +0.143 A 
ATOM     14  O   UNL     1      -2.848   2.396 -21.742  0.00  0.00    -0.422 OA
ENDROOT
TORSDOF 0
ENDMDL
MODEL 7
REMARK VINA RESULT:    -6.881      2.733      5.722
REMARK INTER + INTRA:          -6.881
REMARK INTER:                  -6.881
REMARK INTRA:                   0.000
REMARK UNBOUND:                 0.000
REMARK  Name = ZINC000006091631
REMARK  0 active torsions:
REMARK  status: ('A' for Active; 'I' for Inactive)
REMARK                            x       y       z     vdW  Elec       q    Type
REMARK                         _______ _______ _______ _____ _____    ______ ____
ROOT
ATOM      1  O   UNL     1      -2.951   2.554 -22.923  0.00  0.00    -0.245 OA
ATOM      2  C   UNL     1      -1.807   3.160 -23.043  0.00  0.00    +0.337 A 
ATOM      3  C   UNL     1      -1.767   4.415 -23.378  0.00  0.00    +0.092 A 
ATOM      4  C   UNL     1      -0.623   5.020 -23.498  0.00  0.00    +0.018 A 
ATOM      5  C   UNL     1       0.482   4.370 -23.282  0.00  0.00    +0.018 A 
ATOM      6  C   UNL     1       1.626   4.974 -23.401  0.00  0.00    +0.019 A 
ATOM      7  C   UNL     1       2.731   4.324 -23.185  0.00  0.00    -0.002 A 
ATOM      8  C   UNL     1       2.691   3.068 -22.850  0.00  0.00    +0.127 A 
ATOM      9  O   UNL     1       3.914   2.655 -22.693  0.00  0.00    -0.491 OA
ATOM     10  C   UNL     1       4.709   3.655 -22.932  0.00  0.00    +0.234 C 
ATOM     11  C   UNL     1       1.547   2.464 -22.730  0.00  0.00    +0.092 A 
ATOM     12  C   UNL     1       3.978   4.687 -23.236  0.00  0.00    +0.080 C 
ATOM     13  C   UNL     1       0.443   3.114 -22.946  0.00  0.00    +0.143 A 
ATOM     14  O   UNL     1      -0.703   2.509 -22.827  0.00  0.00    -0.422 OA
ENDROOT
TORSDOF 0
ENDMDL
MODEL 8
REMARK VINA RESULT:    -6.796      2.838      6.119
REMARK INTER + INTRA:          -6.796
REMARK INTER:                  -6.796
REMARK INTRA:                   0.000
REMARK UNBOUND:                 0.000
REMARK  Name = ZINC000006091631
REMARK  0 active torsions:
REMARK  status: ('A' for Active; 'I' for Inactive)
REMARK                            x       y       z     vdW  Elec       q    Type
REMARK                         _______ _______ _______ _____ _____    ______ ____
ROOT
ATOM      1  O   UNL     1      -1.635   3.097 -24.452  0.00  0.00    -0.245 OA
ATOM      2  C   UNL     1      -0.425   3.075 -23.977  0.00  0.00    +0.337 A 
ATOM      3  C   UNL     1       0.363   4.093 -24.156  0.00  0.00    +0.092 A 
ATOM      4  C   UNL     1       1.572   4.070 -23.681  0.00  0.00    +0.018 A 
ATOM      5  C   UNL     1       1.994   3.028 -23.025  0.00  0.00    +0.018 A 
ATOM      6  C   UNL     1       3.203   3.006 -22.550  0.00  0.00    +0.019 A 
ATOM      7  C   UNL     1       3.625   1.965 -21.895  0.00  0.00    -0.002 A 
ATOM      8  C   UNL     1       2.836   0.947 -21.716  0.00  0.00    +0.127 A 
ATOM      9  O   UNL     1       3.488   0.048 -21.040  0.00  0.00    -0.491 OA
ATOM     10  C   UNL     1       4.679   0.510 -20.801  0.00  0.00    +0.234 C 
ATOM     11  C   UNL     1       1.627   0.969 -22.191  0.00  0.00    +0.092 A 
ATOM     12  C   UNL     1       4.764   1.695 -21.330  0.00  0.00    +0.080 C 
ATOM     13  C   UNL     1       1.206   2.010 -22.846  0.00  0.00    +0.143 A 
ATOM     14  O   UNL     1      -0.004   2.034 -23.322  0.00  0.00    -0.422 OA
ENDROOT
TORSDOF 0
ENDMDL
MODEL 9
REMARK VINA RESULT:    -6.796      1.461      5.149
REMARK INTER + INTRA:          -6.796
REMARK INTER:                  -6.796
REMARK INTRA:                   0.000
REMARK UNBOUND:                 0.000
REMARK  Name = ZINC000006091631
REMARK  0 active torsions:
REMARK  status: ('A' for Active; 'I' for Inactive)
REMARK                            x       y       z     vdW  Elec       q    Type
REMARK                         _______ _______ _______ _____ _____    ______ ____
ROOT
ATOM      1  O   UNL     1      -3.325   3.598 -23.919  0.00  0.00    -0.245 OA
ATOM      2  C   UNL     1      -2.318   3.056 -23.301  0.00  0.00    +0.337 A 
ATOM      3  C   UNL     1      -2.472   2.577 -22.102  0.00  0.00    +0.092 A 
ATOM      4  C   UNL     1      -1.465   2.035 -21.484  0.00  0.00    +0.018 A 
ATOM      5  C   UNL     1      -0.303   1.972 -22.065  0.00  0.00    +0.018 A 
ATOM      6  C   UNL     1       0.704   1.430 -21.447  0.00  0.00    +0.019 A 
ATOM      7  C   UNL     1       1.865   1.368 -22.028  0.00  0.00    -0.002 A 
ATOM      8  C   UNL     1       2.019   1.846 -23.226  0.00  0.00    +0.127 A 
ATOM      9  O   UNL     1       3.258   1.663 -23.577  0.00  0.00    -0.491 OA
ATOM     10  C   UNL     1       3.869   1.070 -22.594  0.00  0.00    +0.234 C 
ATOM     11  C   UNL     1       1.012   2.388 -23.844  0.00  0.00    +0.092 A 
ATOM     12  C   UNL     1       3.009   0.887 -21.636  0.00  0.00    +0.080 C 
ATOM     13  C   UNL     1      -0.149   2.451 -23.263  0.00  0.00    +0.143 A 
ATOM     14  O   UNL     1      -1.157   2.993 -23.881  0.00  0.00    -0.422 OA
ENDROOT
TORSDOF 0
ENDMDL
