MODEL 1
REMARK VINA RESULT:    -7.959      0.000      0.000
REMARK INTER + INTRA:          -7.959
REMARK INTER:                  -7.959
REMARK INTRA:                   0.000
REMARK UNBOUND:                 0.000
REMARK  Name = ZINC000004104922
REMARK  1 active torsions:
REMARK  status: ('A' for Active; 'I' for Inactive)
REMARK    1  A    between atoms: C_1  and  C_2
REMARK                            x       y       z     vdW  Elec       q    Type
REMARK                         _______ _______ _______ _____ _____    ______ ____
ROOT
ATOM      1  C   UNL     1      -4.114   4.021 -25.197  0.00  0.00    +0.066 C 
ATOM      2  C   UNL     1      -4.263   3.636 -23.964  0.00  0.00    +0.040 C 
ATOM      3  N   UNL     1      -5.418   3.754 -23.381  0.00  0.00    -0.288 NA
ATOM      4  C   UNL     1      -5.567   3.369 -22.148  0.00  0.00    +0.146 C 
ATOM      5  C   UNL     1      -4.560   2.866 -21.499  0.00  0.00    +0.059 C 
ATOM      6  C   UNL     1      -3.404   2.748 -22.082  0.00  0.00    -0.033 A 
ATOM      7  C   UNL     1      -2.396   2.246 -21.432  0.00  0.00    +0.054 A 
ATOM      8  C   UNL     1      -1.240   2.128 -22.015  0.00  0.00    +0.167 A 
ATOM      9  C   UNL     1      -1.092   2.513 -23.248  0.00  0.00    +0.167 A 
ATOM     10  O   UNL     1       0.142   2.291 -23.591  0.00  0.00    -0.453 OA
ATOM     11  C   UNL     1       0.756   1.769 -22.571  0.00  0.00    +0.466 C 
ATOM     12  C   UNL     1      -2.099   3.015 -23.897  0.00  0.00    +0.059 A 
ATOM     13  O   UNL     1      -0.098   1.668 -21.597  0.00  0.00    -0.453 OA
ATOM     14  C   UNL     1      -3.255   3.133 -23.314  0.00  0.00    +0.002 A 
ENDROOT
TORSDOF 0
ENDMDL
MODEL 2
REMARK VINA RESULT:    -7.836      0.655      2.267
REMARK INTER + INTRA:          -7.836
REMARK INTER:                  -7.836
REMARK INTRA:                   0.000
REMARK UNBOUND:                 0.000
REMARK  Name = ZINC000004104922
REMARK  1 active torsions:
REMARK  status: ('A' for Active; 'I' for Inactive)
REMARK    1  A    between atoms: C_1  and  C_2
REMARK                            x       y       z     vdW  Elec       q    Type
REMARK                         _______ _______ _______ _____ _____    ______ ____
ROOT
ATOM      1  C   UNL     1      -5.168   3.265 -21.747  0.00  0.00    +0.066 C 
ATOM      2  C   UNL     1      -4.571   3.404 -22.894  0.00  0.00    +0.040 C 
ATOM      3  N   UNL     1      -5.215   3.907 -23.905  0.00  0.00    -0.288 NA
ATOM      4  C   UNL     1      -4.618   4.046 -25.051  0.00  0.00    +0.146 C 
ATOM      5  C   UNL     1      -3.377   3.683 -25.186  0.00  0.00    +0.059 C 
ATOM      6  C   UNL     1      -2.733   3.181 -24.175  0.00  0.00    -0.033 A 
ATOM      7  C   UNL     1      -1.492   2.818 -24.309  0.00  0.00    +0.054 A 
ATOM      8  C   UNL     1      -0.848   2.316 -23.298  0.00  0.00    +0.167 A 
ATOM      9  C   UNL     1      -1.446   2.176 -22.151  0.00  0.00    +0.167 A 
ATOM     10  O   UNL     1      -0.595   1.659 -21.316  0.00  0.00    -0.453 OA
ATOM     11  C   UNL     1       0.528   1.478 -21.946  0.00  0.00    +0.466 C 
ATOM     12  C   UNL     1      -2.686   2.539 -22.017  0.00  0.00    +0.059 A 
ATOM     13  O   UNL     1       0.372   1.884 -23.170  0.00  0.00    -0.453 OA
ATOM     14  C   UNL     1      -3.330   3.041 -23.028  0.00  0.00    +0.002 A 
ENDROOT
TORSDOF 0
ENDMDL
MODEL 3
REMARK VINA RESULT:    -7.682      0.974      2.383
REMARK INTER + INTRA:          -7.682
REMARK INTER:                  -7.682
REMARK INTRA:                   0.000
REMARK UNBOUND:                 0.000
REMARK  Name = ZINC000004104922
REMARK  1 active torsions:
REMARK  status: ('A' for Active; 'I' for Inactive)
REMARK    1  A    between atoms: C_1  and  C_2
REMARK                            x       y       z     vdW  Elec       q    Type
REMARK                         _______ _______ _______ _____ _____    ______ ____
ROOT
ATOM      1  C   UNL     1      -4.105   2.643 -20.674  0.00  0.00    +0.066 C 
ATOM      2  C   UNL     1      -4.192   3.044 -21.907  0.00  0.00    +0.040 C 
ATOM      3  N   UNL     1      -5.340   3.417 -22.391  0.00  0.00    -0.288 NA
ATOM      4  C   UNL     1      -5.427   3.817 -23.624  0.00  0.00    +0.146 C 
ATOM      5  C   UNL     1      -4.366   3.846 -24.375  0.00  0.00    +0.059 C 
ATOM      6  C   UNL     1      -3.219   3.473 -23.891  0.00  0.00    -0.033 A 
ATOM      7  C   UNL     1      -2.157   3.502 -24.642  0.00  0.00    +0.054 A 
ATOM      8  C   UNL     1      -1.009   3.129 -24.159  0.00  0.00    +0.167 A 
ATOM      9  C   UNL     1      -0.922   2.728 -22.925  0.00  0.00    +0.167 A 
ATOM     10  O   UNL     1       0.318   2.416 -22.692  0.00  0.00    -0.453 OA
ATOM     11  C   UNL     1       0.997   2.623 -23.780  0.00  0.00    +0.466 C 
ATOM     12  C   UNL     1      -1.983   2.700 -22.175  0.00  0.00    +0.059 A 
ATOM     13  O   UNL     1       0.177   3.064 -24.687  0.00  0.00    -0.453 OA
ATOM     14  C   UNL     1      -3.131   3.072 -22.658  0.00  0.00    +0.002 A 
ENDROOT
TORSDOF 0
ENDMDL
MODEL 4
REMARK VINA RESULT:    -7.621      2.718      4.703
REMARK INTER + INTRA:          -7.621
REMARK INTER:                  -7.621
REMARK INTRA:                   0.000
REMARK UNBOUND:                 0.000
REMARK  Name = ZINC000004104922
REMARK  1 active torsions:
REMARK  status: ('A' for Active; 'I' for Inactive)
REMARK    1  A    between atoms: C_1  and  C_2
REMARK                            x       y       z     vdW  Elec       q    Type
REMARK                         _______ _______ _______ _____ _____    ______ ____
ROOT
ATOM      1  C   UNL     1       0.111   1.578 -21.596  0.00  0.00    +0.066 C 
ATOM      2  C   UNL     1      -0.186   2.193 -22.702  0.00  0.00    +0.040 C 
ATOM      3  N   UNL     1       0.730   2.390 -23.603  0.00  0.00    -0.288 NA
ATOM      4  C   UNL     1       0.434   3.005 -24.709  0.00  0.00    +0.146 C 
ATOM      5  C   UNL     1      -0.780   3.423 -24.914  0.00  0.00    +0.059 C 
ATOM      6  C   UNL     1      -1.696   3.227 -24.014  0.00  0.00    -0.033 A 
ATOM      7  C   UNL     1      -2.910   3.645 -24.219  0.00  0.00    +0.054 A 
ATOM      8  C   UNL     1      -3.826   3.449 -23.318  0.00  0.00    +0.167 A 
ATOM      9  C   UNL     1      -3.529   2.834 -22.212  0.00  0.00    +0.167 A 
ATOM     10  O   UNL     1      -4.607   2.766 -21.489  0.00  0.00    -0.453 OA
ATOM     11  C   UNL     1      -5.571   3.338 -22.148  0.00  0.00    +0.466 C 
ATOM     12  C   UNL     1      -2.316   2.415 -22.006  0.00  0.00    +0.059 A 
ATOM     13  O   UNL     1      -5.088   3.761 -23.278  0.00  0.00    -0.453 OA
ATOM     14  C   UNL     1      -1.400   2.612 -22.907  0.00  0.00    +0.002 A 
ENDROOT
TORSDOF 0
ENDMDL
MODEL 5
REMARK VINA RESULT:    -7.569      2.661      4.202
REMARK INTER + INTRA:          -7.569
REMARK INTER:                  -7.569
REMARK INTRA:                   0.000
REMARK UNBOUND:                 0.000
REMARK  Name = ZINC000004104922
REMARK  1 active torsions:
REMARK  status: ('A' for Active; 'I' for Inactive)
REMARK    1  A    between atoms: C_1  and  C_2
REMARK                            x       y       z     vdW  Elec       q    Type
REMARK                         _______ _______ _______ _____ _____    ______ ____
ROOT
ATOM      1  C   UNL     1      -0.283   3.538 -25.147  0.00  0.00    +0.066 C 
ATOM      2  C   UNL     1      -0.287   2.967 -23.980  0.00  0.00    +0.040 C 
ATOM      3  N   UNL     1       0.813   2.473 -23.494  0.00  0.00    -0.288 NA
ATOM      4  C   UNL     1       0.809   1.902 -22.326  0.00  0.00    +0.146 C 
ATOM      5  C   UNL     1      -0.295   1.825 -21.644  0.00  0.00    +0.059 C 
ATOM      6  C   UNL     1      -1.394   2.319 -22.130  0.00  0.00    -0.033 A 
ATOM      7  C   UNL     1      -2.499   2.242 -21.448  0.00  0.00    +0.054 A 
ATOM      8  C   UNL     1      -3.599   2.736 -21.934  0.00  0.00    +0.167 A 
ATOM      9  C   UNL     1      -3.595   3.307 -23.102  0.00  0.00    +0.167 A 
ATOM     10  O   UNL     1      -4.804   3.712 -23.354  0.00  0.00    -0.453 OA
ATOM     11  C   UNL     1      -5.555   3.392 -22.343  0.00  0.00    +0.466 C 
ATOM     12  C   UNL     1      -2.491   3.384 -23.784  0.00  0.00    +0.059 A 
ATOM     13  O   UNL     1      -4.811   2.789 -21.465  0.00  0.00    -0.453 OA
ATOM     14  C   UNL     1      -1.391   2.890 -23.298  0.00  0.00    +0.002 A 
ENDROOT
TORSDOF 0
ENDMDL
MODEL 6
REMARK VINA RESULT:    -7.282      2.812      4.324
REMARK INTER + INTRA:          -7.282
REMARK INTER:                  -7.282
REMARK INTRA:                   0.000
REMARK UNBOUND:                 0.000
REMARK  Name = ZINC000004104922
REMARK  1 active torsions:
REMARK  status: ('A' for Active; 'I' for Inactive)
REMARK    1  A    between atoms: C_1  and  C_2
REMARK                            x       y       z     vdW  Elec       q    Type
REMARK                         _______ _______ _______ _____ _____    ______ ____
ROOT
ATOM      1  C   UNL     1       0.717   3.150 -24.952  0.00  0.00    +0.066 C 
ATOM      2  C   UNL     1       0.160   2.680 -23.876  0.00  0.00    +0.040 C 
ATOM      3  N   UNL     1       0.866   1.999 -23.022  0.00  0.00    -0.288 NA
ATOM      4  C   UNL     1       0.308   1.529 -21.946  0.00  0.00    +0.146 C 
ATOM      5  C   UNL     1      -0.955   1.739 -21.723  0.00  0.00    +0.059 C 
ATOM      6  C   UNL     1      -1.660   2.420 -22.576  0.00  0.00    -0.033 A 
ATOM      7  C   UNL     1      -2.924   2.631 -22.354  0.00  0.00    +0.054 A 
ATOM      8  C   UNL     1      -3.630   3.312 -23.207  0.00  0.00    +0.167 A 
ATOM      9  C   UNL     1      -3.072   3.782 -24.283  0.00  0.00    +0.167 A 
ATOM     10  O   UNL     1      -3.982   4.417 -24.961  0.00  0.00    -0.453 OA
ATOM     11  C   UNL     1      -5.101   4.339 -24.304  0.00  0.00    +0.466 C 
ATOM     12  C   UNL     1      -1.809   3.571 -24.506  0.00  0.00    +0.059 A 
ATOM     13  O   UNL     1      -4.884   3.656 -23.220  0.00  0.00    -0.453 OA
ATOM     14  C   UNL     1      -1.104   2.891 -23.653  0.00  0.00    +0.002 A 
ENDROOT
TORSDOF 0
ENDMDL
MODEL 7
REMARK VINA RESULT:    -7.040      2.085      3.014
REMARK INTER + INTRA:          -7.040
REMARK INTER:                  -7.040
REMARK INTRA:                   0.000
REMARK UNBOUND:                 0.000
REMARK  Name = ZINC000004104922
REMARK  1 active torsions:
REMARK  status: ('A' for Active; 'I' for Inactive)
REMARK    1  A    between atoms: C_1  and  C_2
REMARK                            x       y       z     vdW  Elec       q    Type
REMARK                         _______ _______ _______ _____ _____    ______ ____
ROOT
ATOM      1  C   UNL     1      -0.576   3.624 -25.104  0.00  0.00    +0.066 C 
ATOM      2  C   UNL     1      -1.036   3.152 -23.984  0.00  0.00    +0.040 C 
ATOM      3  N   UNL     1      -2.304   3.245 -23.711  0.00  0.00    -0.288 NA
ATOM      4  C   UNL     1      -2.764   2.772 -22.591  0.00  0.00    +0.146 C 
ATOM      5  C   UNL     1      -1.957   2.208 -21.743  0.00  0.00    +0.059 C 
ATOM      6  C   UNL     1      -0.690   2.115 -22.016  0.00  0.00    -0.033 A 
ATOM      7  C   UNL     1       0.118   1.549 -21.168  0.00  0.00    +0.054 A 
ATOM      8  C   UNL     1       1.386   1.457 -21.440  0.00  0.00    +0.167 A 
ATOM      9  C   UNL     1       1.846   1.929 -22.560  0.00  0.00    +0.167 A 
ATOM     10  O   UNL     1       3.127   1.713 -22.590  0.00  0.00    -0.453 OA
ATOM     11  C   UNL     1       3.459   1.108 -21.489  0.00  0.00    +0.466 C 
ATOM     12  C   UNL     1       1.039   2.494 -23.408  0.00  0.00    +0.059 A 
ATOM     13  O   UNL     1       2.383   0.949 -20.778  0.00  0.00    -0.453 OA
ATOM     14  C   UNL     1      -0.228   2.586 -23.136  0.00  0.00    +0.002 A 
ENDROOT
TORSDOF 0
ENDMDL
MODEL 8
REMARK VINA RESULT:    -6.863      2.867      4.727
REMARK INTER + INTRA:          -6.863
REMARK INTER:                  -6.863
REMARK INTRA:                   0.000
REMARK UNBOUND:                 0.000
REMARK  Name = ZINC000004104922
REMARK  1 active torsions:
REMARK  status: ('A' for Active; 'I' for Inactive)
REMARK    1  A    between atoms: C_1  and  C_2
REMARK                            x       y       z     vdW  Elec       q    Type
REMARK                         _______ _______ _______ _____ _____    ______ ____
ROOT
ATOM      1  C   UNL     1       1.373   4.726 -24.030  0.00  0.00    +0.066 C 
ATOM      2  C   UNL     1       1.364   3.669 -23.273  0.00  0.00    +0.040 C 
ATOM      3  N   UNL     1       2.479   3.064 -22.988  0.00  0.00    -0.288 NA
ATOM      4  C   UNL     1       2.471   2.007 -22.232  0.00  0.00    +0.146 C 
ATOM      5  C   UNL     1       1.347   1.554 -21.761  0.00  0.00    +0.059 C 
ATOM      6  C   UNL     1       0.232   2.159 -22.046  0.00  0.00    -0.033 A 
ATOM      7  C   UNL     1      -0.892   1.706 -21.574  0.00  0.00    +0.054 A 
ATOM      8  C   UNL     1      -2.007   2.310 -21.859  0.00  0.00    +0.167 A 
ATOM      9  C   UNL     1      -1.998   3.368 -22.616  0.00  0.00    +0.167 A 
ATOM     10  O   UNL     1      -3.225   3.777 -22.747  0.00  0.00    -0.453 OA
ATOM     11  C   UNL     1      -3.992   2.973 -22.072  0.00  0.00    +0.466 C 
ATOM     12  C   UNL     1      -0.875   3.820 -23.087  0.00  0.00    +0.059 A 
ATOM     13  O   UNL     1      -3.239   2.067 -21.523  0.00  0.00    -0.453 OA
ATOM     14  C   UNL     1       0.240   3.216 -22.802  0.00  0.00    +0.002 A 
ENDROOT
TORSDOF 0
ENDMDL
MODEL 9
REMARK VINA RESULT:    -6.776      2.273      3.704
REMARK INTER + INTRA:          -6.776
REMARK INTER:                  -6.776
REMARK INTRA:                   0.000
REMARK UNBOUND:                 0.000
REMARK  Name = ZINC000004104922
REMARK  1 active torsions:
REMARK  status: ('A' for Active; 'I' for Inactive)
REMARK    1  A    between atoms: C_1  and  C_2
REMARK                            x       y       z     vdW  Elec       q    Type
REMARK                         _______ _______ _______ _____ _____    ______ ____
ROOT
ATOM      1  C   UNL     1      -2.455   2.249 -21.379  0.00  0.00    +0.066 C 
ATOM      2  C   UNL     1      -1.757   3.003 -22.175  0.00  0.00    +0.040 C 
ATOM      3  N   UNL     1      -2.330   3.976 -22.818  0.00  0.00    -0.288 NA
ATOM      4  C   UNL     1      -1.632   4.730 -23.614  0.00  0.00    +0.146 C 
ATOM      5  C   UNL     1      -0.360   4.511 -23.768  0.00  0.00    +0.059 C 
ATOM      6  C   UNL     1       0.213   3.537 -23.125  0.00  0.00    -0.033 A 
ATOM      7  C   UNL     1       1.486   3.318 -23.278  0.00  0.00    +0.054 A 
ATOM      8  C   UNL     1       2.059   2.344 -22.635  0.00  0.00    +0.167 A 
ATOM      9  C   UNL     1       1.361   1.590 -21.838  0.00  0.00    +0.167 A 
ATOM     10  O   UNL     1       2.159   0.703 -21.324  0.00  0.00    -0.453 OA
ATOM     11  C   UNL     1       3.351   0.908 -21.802  0.00  0.00    +0.466 C 
ATOM     12  C   UNL     1       0.089   1.810 -21.685  0.00  0.00    +0.059 A 
ATOM     13  O   UNL     1       3.289   1.922 -22.612  0.00  0.00    -0.453 OA
ATOM     14  C   UNL     1      -0.484   2.783 -22.328  0.00  0.00    +0.002 A 
ENDROOT
TORSDOF 0
ENDMDL
