MODEL 1
REMARK VINA RESULT:   -12.280      0.000      0.000
REMARK INTER + INTRA:         -12.280
REMARK INTER:                 -12.280
REMARK INTRA:                   0.000
REMARK UNBOUND:                 0.000
REMARK  Name = ZINC000000119434
REMARK  0 active torsions:
REMARK  status: ('A' for Active; 'I' for Inactive)
REMARK                            x       y       z     vdW  Elec       q    Type
REMARK                         _______ _______ _______ _____ _____    ______ ____
ROOT
ATOM      1  O   UNL     1      -3.594   2.424 -20.745  0.00  0.00    -0.275 OA
ATOM      2  C   UNL     1      -2.567   2.411 -21.403  0.00  0.00    +0.223 C 
ATOM      3  C   UNL     1      -1.533   2.031 -20.887  0.00  0.00    +0.128 C 
ATOM      4  C   UNL     1      -0.492   2.004 -21.508  0.00  0.00    +0.133 C 
ATOM      5  O   UNL     1       0.391   1.589 -20.777  0.00  0.00    -0.372 OA
ATOM      6  C   UNL     1       1.565   1.426 -21.052  0.00  0.00    +0.187 C 
ATOM      7  C   UNL     1       2.138   1.630 -22.097  0.00  0.00    +0.005 C 
ATOM      8  C   UNL     1       1.688   2.049 -23.133  0.00  0.00    -0.023 C 
ATOM      9  C   UNL     1       1.379   2.851 -25.494  0.00  0.00    +0.163 C 
ATOM     10  N   UNL     1      -0.990   3.525 -26.045  0.00  0.00    +0.241 N 
ATOM     11  H   UNL     1      -1.186   3.861 -26.988  0.00  0.00    +0.204 HD
ATOM     12  C   UNL     1      -2.177   3.757 -25.983  0.00  0.00    +0.133 C 
ATOM     13  C   UNL     1      -2.569   3.492 -24.868  0.00  0.00    +0.070 C 
ATOM     14  C   UNL     1      -1.608   3.090 -24.229  0.00  0.00    +0.064 C 
ATOM     15  C   UNL     1      -2.770   3.397 -24.427  0.00  0.00    -0.012 A 
ATOM     16  C   UNL     1      -3.355   3.829 -25.411  0.00  0.00    +0.006 A 
ATOM     17  C   UNL     1      -4.555   4.065 -25.354  0.00  0.00    +0.000 A 
ATOM     18  C   UNL     1      -5.169   3.870 -24.313  0.00  0.00    +0.002 A 
ATOM     19  C   UNL     1      -4.583   3.439 -23.329  0.00  0.00    +0.024 A 
ATOM     20  C   UNL     1      -3.384   3.203 -23.385  0.00  0.00    +0.041 A 
ATOM     21  C   UNL     1      -1.502   2.712 -23.090  0.00  0.00    +0.104 C 
ATOM     22  C   UNL     1      -0.641   3.109 -24.949  0.00  0.00    +0.078 C 
ATOM     23  C   UNL     1       0.442   2.752 -24.539  0.00  0.00    +0.064 C 
ATOM     24  C   UNL     1       0.544   2.368 -23.379  0.00  0.00    +0.032 C 
ATOM     25  C   UNL     1      -0.422   2.348 -22.659  0.00  0.00    +0.048 C 
ATOM     26  N   UNL     1      -2.598   2.780 -22.564  0.00  0.00    -0.267 N 
ENDROOT
TORSDOF 0
ENDMDL
MODEL 2
REMARK VINA RESULT:   -12.242      1.869      3.473
REMARK INTER + INTRA:         -12.242
REMARK INTER:                 -12.242
REMARK INTRA:                   0.000
REMARK UNBOUND:                 0.000
REMARK  Name = ZINC000000119434
REMARK  0 active torsions:
REMARK  status: ('A' for Active; 'I' for Inactive)
REMARK                            x       y       z     vdW  Elec       q    Type
REMARK                         _______ _______ _______ _____ _____    ______ ____
ROOT
ATOM      1  O   UNL     1      -3.270   4.187 -26.358  0.00  0.00    -0.275 OA
ATOM      2  C   UNL     1      -2.472   3.743 -25.549  0.00  0.00    +0.223 C 
ATOM      3  C   UNL     1      -1.308   3.603 -25.875  0.00  0.00    +0.128 C 
ATOM      4  C   UNL     1      -0.485   3.166 -25.099  0.00  0.00    +0.133 C 
ATOM      5  O   UNL     1       0.597   3.122 -25.658  0.00  0.00    -0.372 OA
ATOM      6  C   UNL     1       1.656   2.739 -25.196  0.00  0.00    +0.187 C 
ATOM      7  C   UNL     1       1.894   2.315 -24.088  0.00  0.00    +0.005 C 
ATOM      8  C   UNL     1       1.138   2.165 -23.161  0.00  0.00    -0.023 C 
ATOM      9  C   UNL     1       0.116   1.634 -20.928  0.00  0.00    +0.163 C 
ATOM     10  N   UNL     1      -2.356   2.118 -20.793  0.00  0.00    +0.241 N 
ATOM     11  H   UNL     1      -2.836   1.926 -19.914  0.00  0.00    +0.204 HD
ATOM     12  C   UNL     1      -3.493   2.450 -21.052  0.00  0.00    +0.133 C 
ATOM     13  C   UNL     1      -3.533   2.843 -22.197  0.00  0.00    +0.070 C 
ATOM     14  C   UNL     1      -2.403   2.754 -22.654  0.00  0.00    +0.064 C 
ATOM     15  C   UNL     1      -3.594   3.011 -22.658  0.00  0.00    -0.012 A 
ATOM     16  C   UNL     1      -4.464   2.911 -21.804  0.00  0.00    +0.006 A 
ATOM     17  C   UNL     1      -5.614   3.243 -22.060  0.00  0.00    +0.000 A 
ATOM     18  C   UNL     1      -5.892   3.677 -23.170  0.00  0.00    +0.002 A 
ATOM     19  C   UNL     1      -5.022   3.777 -24.024  0.00  0.00    +0.024 A 
ATOM     20  C   UNL     1      -3.872   3.444 -23.768  0.00  0.00    +0.041 A 
ATOM     21  C   UNL     1      -1.951   3.022 -23.739  0.00  0.00    +0.104 C 
ATOM     22  C   UNL     1      -1.683   2.311 -21.795  0.00  0.00    +0.078 C 
ATOM     23  C   UNL     1      -0.504   2.131 -22.010  0.00  0.00    +0.064 C 
ATOM     24  C   UNL     1      -0.050   2.405 -23.115  0.00  0.00    +0.032 C 
ATOM     25  C   UNL     1      -0.769   2.848 -23.974  0.00  0.00    +0.048 C 
ATOM     26  N   UNL     1      -2.857   3.450 -24.431  0.00  0.00    -0.267 N 
ENDROOT
TORSDOF 0
ENDMDL
MODEL 3
REMARK VINA RESULT:   -12.022      0.863      4.302
REMARK INTER + INTRA:         -12.022
REMARK INTER:                 -12.022
REMARK INTRA:                   0.000
REMARK UNBOUND:                 0.000
REMARK  Name = ZINC000000119434
REMARK  0 active torsions:
REMARK  status: ('A' for Active; 'I' for Inactive)
REMARK                            x       y       z     vdW  Elec       q    Type
REMARK                         _______ _______ _______ _____ _____    ______ ____
ROOT
ATOM      1  O   UNL     1       0.141   1.502 -20.615  0.00  0.00    -0.275 OA
ATOM      2  C   UNL     1      -0.694   1.969 -21.371  0.00  0.00    +0.223 C 
ATOM      3  C   UNL     1      -1.846   2.074 -20.995  0.00  0.00    +0.128 C 
ATOM      4  C   UNL     1      -2.706   2.533 -21.717  0.00  0.00    +0.133 C 
ATOM      5  O   UNL     1      -3.766   2.531 -21.115  0.00  0.00    -0.372 OA
ATOM      6  C   UNL     1      -4.848   2.917 -21.518  0.00  0.00    +0.187 C 
ATOM      7  C   UNL     1      -5.136   3.388 -22.594  0.00  0.00    +0.005 C 
ATOM      8  C   UNL     1      -4.420   3.595 -23.542  0.00  0.00    -0.023 C 
ATOM      9  C   UNL     1      -3.494   4.249 -25.784  0.00  0.00    +0.163 C 
ATOM     10  N   UNL     1      -1.021   3.814 -26.037  0.00  0.00    +0.241 N 
ATOM     11  H   UNL     1      -0.579   4.057 -26.923  0.00  0.00    +0.204 HD
ATOM     12  C   UNL     1       0.130   3.491 -25.837  0.00  0.00    +0.133 C 
ATOM     13  C   UNL     1       0.220   3.045 -24.715  0.00  0.00    +0.070 C 
ATOM     14  C   UNL     1      -0.892   3.092 -24.212  0.00  0.00    +0.064 C 
ATOM     15  C   UNL     1       0.302   2.856 -24.265  0.00  0.00    -0.012 A 
ATOM     16  C   UNL     1       1.137   3.012 -25.146  0.00  0.00    +0.006 A 
ATOM     17  C   UNL     1       2.301   2.688 -24.951  0.00  0.00    +0.000 A 
ATOM     18  C   UNL     1       2.629   2.208 -23.874  0.00  0.00    +0.002 A 
ATOM     19  C   UNL     1       1.794   2.052 -22.993  0.00  0.00    +0.024 A 
ATOM     20  C   UNL     1       0.630   2.376 -23.188  0.00  0.00    +0.041 A 
ATOM     21  C   UNL     1      -1.297   2.766 -23.124  0.00  0.00    +0.104 C 
ATOM     22  C   UNL     1      -1.652   3.563 -25.020  0.00  0.00    +0.078 C 
ATOM     23  C   UNL     1      -2.825   3.712 -24.751  0.00  0.00    +0.064 C 
ATOM     24  C   UNL     1      -3.231   3.379 -23.644  0.00  0.00    +0.032 C 
ATOM     25  C   UNL     1      -2.472   2.908 -22.836  0.00  0.00    +0.048 C 
ATOM     26  N   UNL     1      -0.358   2.322 -22.488  0.00  0.00    -0.267 N 
ENDROOT
TORSDOF 0
ENDMDL
MODEL 4
REMARK VINA RESULT:   -10.695      1.974      5.163
REMARK INTER + INTRA:         -10.695
REMARK INTER:                 -10.695
REMARK INTRA:                   0.000
REMARK UNBOUND:                 0.000
REMARK  Name = ZINC000000119434
REMARK  0 active torsions:
REMARK  status: ('A' for Active; 'I' for Inactive)
REMARK                            x       y       z     vdW  Elec       q    Type
REMARK                         _______ _______ _______ _____ _____    ______ ____
ROOT
ATOM      1  O   UNL     1      -2.395   3.782 -27.007  0.00  0.00    -0.275 OA
ATOM      2  C   UNL     1      -2.694   3.626 -25.835  0.00  0.00    +0.223 C 
ATOM      3  C   UNL     1      -3.861   3.708 -25.501  0.00  0.00    +0.128 C 
ATOM      4  C   UNL     1      -4.198   3.559 -24.346  0.00  0.00    +0.133 C 
ATOM      5  O   UNL     1      -5.408   3.689 -24.270  0.00  0.00    -0.372 OA
ATOM      6  C   UNL     1      -6.101   3.608 -23.273  0.00  0.00    +0.187 C 
ATOM      7  C   UNL     1      -5.770   3.383 -22.132  0.00  0.00    +0.005 C 
ATOM      8  C   UNL     1      -4.665   3.181 -21.694  0.00  0.00    -0.023 C 
ATOM      9  C   UNL     1      -2.696   2.707 -20.208  0.00  0.00    +0.163 C 
ATOM     10  N   UNL     1      -0.486   2.645 -21.425  0.00  0.00    +0.241 N 
ATOM     11  H   UNL     1       0.356   2.457 -20.882  0.00  0.00    +0.204 HD
ATOM     12  C   UNL     1       0.373   2.684 -22.279  0.00  0.00    +0.133 C 
ATOM     13  C   UNL     1      -0.148   2.920 -23.346  0.00  0.00    +0.070 C 
ATOM     14  C   UNL     1      -1.349   3.029 -23.151  0.00  0.00    +0.064 C 
ATOM     15  C   UNL     1      -0.318   3.014 -23.800  0.00  0.00    -0.012 A 
ATOM     16  C   UNL     1       0.851   2.826 -23.492  0.00  0.00    +0.006 A 
ATOM     17  C   UNL     1       1.723   2.863 -24.350  0.00  0.00    +0.000 A 
ATOM     18  C   UNL     1       1.426   3.089 -25.515  0.00  0.00    +0.002 A 
ATOM     19  C   UNL     1       0.257   3.277 -25.824  0.00  0.00    +0.024 A 
ATOM     20  C   UNL     1      -0.616   3.239 -24.966  0.00  0.00    +0.041 A 
ATOM     21  C   UNL     1      -2.267   3.259 -23.897  0.00  0.00    +0.104 C 
ATOM     22  C   UNL     1      -1.557   2.861 -21.976  0.00  0.00    +0.078 C 
ATOM     23  C   UNL     1      -2.683   2.922 -21.533  0.00  0.00    +0.064 C 
ATOM     24  C   UNL     1      -3.613   3.156 -22.296  0.00  0.00    +0.032 C 
ATOM     25  C   UNL     1      -3.406   3.323 -23.471  0.00  0.00    +0.048 C 
ATOM     26  N   UNL     1      -1.817   3.390 -25.021  0.00  0.00    -0.267 N 
ENDROOT
TORSDOF 0
ENDMDL
MODEL 5
REMARK VINA RESULT:   -10.429      1.050      4.498
REMARK INTER + INTRA:         -10.429
REMARK INTER:                 -10.429
REMARK INTRA:                   0.000
REMARK UNBOUND:                 0.000
REMARK  Name = ZINC000000119434
REMARK  0 active torsions:
REMARK  status: ('A' for Active; 'I' for Inactive)
REMARK                            x       y       z     vdW  Elec       q    Type
REMARK                         _______ _______ _______ _____ _____    ______ ____
ROOT
ATOM      1  O   UNL     1      -3.073   2.329 -20.043  0.00  0.00    -0.275 OA
ATOM      2  C   UNL     1      -3.055   2.635 -21.224  0.00  0.00    +0.223 C 
ATOM      3  C   UNL     1      -4.077   3.028 -21.754  0.00  0.00    +0.128 C 
ATOM      4  C   UNL     1      -4.100   3.341 -22.925  0.00  0.00    +0.133 C 
ATOM      5  O   UNL     1      -5.229   3.698 -23.214  0.00  0.00    -0.372 OA
ATOM      6  C   UNL     1      -5.630   4.082 -24.297  0.00  0.00    +0.187 C 
ATOM      7  C   UNL     1      -5.022   4.204 -25.335  0.00  0.00    +0.005 C 
ATOM      8  C   UNL     1      -3.860   3.973 -25.559  0.00  0.00    -0.023 C 
ATOM      9  C   UNL     1      -1.607   3.696 -26.635  0.00  0.00    +0.163 C 
ATOM     10  N   UNL     1       0.178   2.841 -25.069  0.00  0.00    +0.241 N 
ATOM     11  H   UNL     1       1.117   2.705 -25.441  0.00  0.00    +0.204 HD
ATOM     12  C   UNL     1       0.774   2.437 -24.095  0.00  0.00    +0.133 C 
ATOM     13  C   UNL     1       0.004   2.383 -23.161  0.00  0.00    +0.070 C 
ATOM     14  C   UNL     1      -1.086   2.760 -23.564  0.00  0.00    +0.064 C 
ATOM     15  C   UNL     1      -0.275   2.346 -22.755  0.00  0.00    -0.012 A 
ATOM     16  C   UNL     1       0.915   2.073 -22.843  0.00  0.00    +0.006 A 
ATOM     17  C   UNL     1       1.522   1.664 -21.862  0.00  0.00    +0.000 A 
ATOM     18  C   UNL     1       0.940   1.529 -20.794  0.00  0.00    +0.002 A 
ATOM     19  C   UNL     1      -0.250   1.802 -20.706  0.00  0.00    +0.024 A 
ATOM     20  C   UNL     1      -0.858   2.210 -21.687  0.00  0.00    +0.041 A 
ATOM     21  C   UNL     1      -2.150   2.879 -23.011  0.00  0.00    +0.104 C 
ATOM     22  C   UNL     1      -0.981   3.040 -24.732  0.00  0.00    +0.078 C 
ATOM     23  C   UNL     1      -1.937   3.443 -25.359  0.00  0.00    +0.064 C 
ATOM     24  C   UNL     1      -3.016   3.562 -24.791  0.00  0.00    +0.032 C 
ATOM     25  C   UNL     1      -3.122   3.282 -23.624  0.00  0.00    +0.048 C 
ATOM     26  N   UNL     1      -2.013   2.540 -21.850  0.00  0.00    -0.267 N 
ENDROOT
TORSDOF 0
ENDMDL
MODEL 6
REMARK VINA RESULT:   -10.354      1.330      2.932
REMARK INTER + INTRA:         -10.354
REMARK INTER:                 -10.354
REMARK INTRA:                   0.000
REMARK UNBOUND:                 0.000
REMARK  Name = ZINC000000119434
REMARK  0 active torsions:
REMARK  status: ('A' for Active; 'I' for Inactive)
REMARK                            x       y       z     vdW  Elec       q    Type
REMARK                         _______ _______ _______ _____ _____    ______ ____
ROOT
ATOM      1  O   UNL     1      -0.733   1.881 -20.385  0.00  0.00    -0.275 OA
ATOM      2  C   UNL     1      -0.801   2.251 -21.545  0.00  0.00    +0.223 C 
ATOM      3  C   UNL     1       0.213   2.304 -22.214  0.00  0.00    +0.128 C 
ATOM      4  C   UNL     1       0.186   2.666 -23.371  0.00  0.00    +0.133 C 
ATOM      5  O   UNL     1       1.319   2.634 -23.820  0.00  0.00    -0.372 OA
ATOM      6  C   UNL     1       1.681   2.927 -24.944  0.00  0.00    +0.187 C 
ATOM      7  C   UNL     1       1.019   3.317 -25.879  0.00  0.00    +0.005 C 
ATOM      8  C   UNL     1      -0.169   3.512 -25.931  0.00  0.00    -0.023 C 
ATOM      9  C   UNL     1      -2.500   4.093 -26.666  0.00  0.00    +0.163 C 
ATOM     10  N   UNL     1      -4.244   3.799 -24.866  0.00  0.00    +0.241 N 
ATOM     11  H   UNL     1      -5.213   4.017 -25.097  0.00  0.00    +0.204 HD
ATOM     12  C   UNL     1      -4.807   3.561 -23.820  0.00  0.00    +0.133 C 
ATOM     13  C   UNL     1      -3.987   3.186 -23.012  0.00  0.00    +0.070 C 
ATOM     14  C   UNL     1      -2.898   3.193 -23.566  0.00  0.00    +0.064 C 
ATOM     15  C   UNL     1      -3.687   3.030 -22.652  0.00  0.00    -0.012 A 
ATOM     16  C   UNL     1      -4.897   3.186 -22.566  0.00  0.00    +0.006 A 
ATOM     17  C   UNL     1      -5.472   2.947 -21.512  0.00  0.00    +0.000 A 
ATOM     18  C   UNL     1      -4.835   2.551 -20.545  0.00  0.00    +0.002 A 
ATOM     19  C   UNL     1      -3.625   2.395 -20.630  0.00  0.00    +0.024 A 
ATOM     20  C   UNL     1      -3.050   2.634 -21.684  0.00  0.00    +0.041 A 
ATOM     21  C   UNL     1      -1.795   2.905 -23.175  0.00  0.00    +0.104 C 
ATOM     22  C   UNL     1      -3.055   3.568 -24.701  0.00  0.00    +0.078 C 
ATOM     23  C   UNL     1      -2.112   3.659 -25.457  0.00  0.00    +0.064 C 
ATOM     24  C   UNL     1      -0.993   3.365 -25.053  0.00  0.00    +0.032 C 
ATOM     25  C   UNL     1      -0.835   2.991 -23.919  0.00  0.00    +0.048 C 
ATOM     26  N   UNL     1      -1.885   2.559 -22.011  0.00  0.00    -0.267 N 
ENDROOT
TORSDOF 0
ENDMDL
MODEL 7
REMARK VINA RESULT:   -10.191      1.313      2.069
REMARK INTER + INTRA:         -10.191
REMARK INTER:                 -10.191
REMARK INTRA:                   0.000
REMARK UNBOUND:                 0.000
REMARK  Name = ZINC000000119434
REMARK  0 active torsions:
REMARK  status: ('A' for Active; 'I' for Inactive)
REMARK                            x       y       z     vdW  Elec       q    Type
REMARK                         _______ _______ _______ _____ _____    ______ ____
ROOT
ATOM      1  O   UNL     1      -2.215   1.365 -21.345  0.00  0.00    -0.275 OA
ATOM      2  C   UNL     1      -1.070   1.642 -21.661  0.00  0.00    +0.223 C 
ATOM      3  C   UNL     1      -0.158   1.352 -20.911  0.00  0.00    +0.128 C 
ATOM      4  C   UNL     1       0.993   1.611 -21.189  0.00  0.00    +0.133 C 
ATOM      5  O   UNL     1       1.713   1.223 -20.285  0.00  0.00    -0.372 OA
ATOM      6  C   UNL     1       2.925   1.309 -20.212  0.00  0.00    +0.187 C 
ATOM      7  C   UNL     1       3.703   1.790 -21.004  0.00  0.00    +0.005 C 
ATOM      8  C   UNL     1       3.471   2.308 -22.067  0.00  0.00    -0.023 C 
ATOM      9  C   UNL     1       3.649   3.460 -24.293  0.00  0.00    +0.163 C 
ATOM     10  N   UNL     1       1.431   3.820 -25.440  0.00  0.00    +0.241 N 
ATOM     11  H   UNL     1       1.430   4.283 -26.349  0.00  0.00    +0.204 HD
ATOM     12  C   UNL     1       0.249   3.837 -25.708  0.00  0.00    +0.133 C 
ATOM     13  C   UNL     1      -0.364   3.314 -24.804  0.00  0.00    +0.070 C 
ATOM     14  C   UNL     1       0.452   2.968 -23.962  0.00  0.00    +0.064 C 
ATOM     15  C   UNL     1      -0.652   3.109 -24.459  0.00  0.00    -0.012 A 
ATOM     16  C   UNL     1      -1.027   3.608 -25.512  0.00  0.00    +0.006 A 
ATOM     17  C   UNL     1      -2.219   3.628 -25.789  0.00  0.00    +0.000 A 
ATOM     18  C   UNL     1      -3.036   3.150 -25.012  0.00  0.00    +0.002 A 
ATOM     19  C   UNL     1      -2.661   2.652 -23.959  0.00  0.00    +0.024 A 
ATOM     20  C   UNL     1      -1.468   2.631 -23.682  0.00  0.00    +0.041 A 
ATOM     21  C   UNL     1       0.323   2.414 -22.900  0.00  0.00    +0.104 C 
ATOM     22  C   UNL     1       1.550   3.277 -24.351  0.00  0.00    +0.078 C 
ATOM     23  C   UNL     1       2.532   3.036 -23.682  0.00  0.00    +0.064 C 
ATOM     24  C   UNL     1       2.395   2.473 -22.603  0.00  0.00    +0.032 C 
ATOM     25  C   UNL     1       1.298   2.163 -22.214  0.00  0.00    +0.048 C 
ATOM     26  N   UNL     1      -0.863   2.204 -22.723  0.00  0.00    -0.267 N 
ENDROOT
TORSDOF 0
ENDMDL
MODEL 8
REMARK VINA RESULT:   -10.167      2.037      3.798
REMARK INTER + INTRA:         -10.167
REMARK INTER:                 -10.167
REMARK INTRA:                   0.000
REMARK UNBOUND:                 0.000
REMARK  Name = ZINC000000119434
REMARK  0 active torsions:
REMARK  status: ('A' for Active; 'I' for Inactive)
REMARK                            x       y       z     vdW  Elec       q    Type
REMARK                         _______ _______ _______ _____ _____    ______ ____
ROOT
ATOM      1  O   UNL     1       0.812   4.136 -26.299  0.00  0.00    -0.275 OA
ATOM      2  C   UNL     1       1.121   3.625 -25.235  0.00  0.00    +0.223 C 
ATOM      3  C   UNL     1       2.295   3.437 -24.983  0.00  0.00    +0.128 C 
ATOM      4  C   UNL     1       2.642   2.931 -23.937  0.00  0.00    +0.133 C 
ATOM      5  O   UNL     1       3.859   2.850 -23.924  0.00  0.00    -0.372 OA
ATOM      6  C   UNL     1       4.563   2.398 -23.041  0.00  0.00    +0.187 C 
ATOM      7  C   UNL     1       4.238   1.925 -21.976  0.00  0.00    +0.005 C 
ATOM      8  C   UNL     1       3.131   1.783 -21.521  0.00  0.00    -0.023 C 
ATOM      9  C   UNL     1       1.162   1.228 -20.063  0.00  0.00    +0.163 C 
ATOM     10  N   UNL     1      -1.067   1.835 -21.077  0.00  0.00    +0.241 N 
ATOM     11  H   UNL     1      -1.910   1.637 -20.538  0.00  0.00    +0.204 HD
ATOM     12  C   UNL     1      -1.937   2.233 -21.822  0.00  0.00    +0.133 C 
ATOM     13  C   UNL     1      -1.421   2.667 -22.828  0.00  0.00    +0.070 C 
ATOM     14  C   UNL     1      -0.212   2.536 -22.704  0.00  0.00    +0.064 C 
ATOM     15  C   UNL     1      -1.253   2.853 -23.253  0.00  0.00    -0.012 A 
ATOM     16  C   UNL     1      -2.425   2.769 -22.914  0.00  0.00    +0.006 A 
ATOM     17  C   UNL     1      -3.308   3.169 -23.662  0.00  0.00    +0.000 A 
ATOM     18  C   UNL     1      -3.018   3.654 -24.748  0.00  0.00    +0.002 A 
ATOM     19  C   UNL     1      -1.845   3.738 -25.086  0.00  0.00    +0.024 A 
ATOM     20  C   UNL     1      -0.962   3.338 -24.339  0.00  0.00    +0.041 A 
ATOM     21  C   UNL     1       0.705   2.817 -23.434  0.00  0.00    +0.104 C 
ATOM     22  C   UNL     1       0.005   2.027 -21.634  0.00  0.00    +0.078 C 
ATOM     23  C   UNL     1       1.140   1.793 -21.280  0.00  0.00    +0.064 C 
ATOM     24  C   UNL     1       2.069   2.081 -22.025  0.00  0.00    +0.032 C 
ATOM     25  C   UNL     1       1.853   2.590 -23.096  0.00  0.00    +0.048 C 
ATOM     26  N   UNL     1       0.245   3.314 -24.446  0.00  0.00    -0.267 N 
ENDROOT
TORSDOF 0
ENDMDL
MODEL 9
REMARK VINA RESULT:    -9.928      1.365      2.341
REMARK INTER + INTRA:          -9.928
REMARK INTER:                  -9.928
REMARK INTRA:                   0.000
REMARK UNBOUND:                 0.000
REMARK  Name = ZINC000000119434
REMARK  0 active torsions:
REMARK  status: ('A' for Active; 'I' for Inactive)
REMARK                            x       y       z     vdW  Elec       q    Type
REMARK                         _______ _______ _______ _____ _____    ______ ____
ROOT
ATOM      1  O   UNL     1      -0.217   1.068 -20.058  0.00  0.00    -0.275 OA
ATOM      2  C   UNL     1       0.252   1.535 -21.082  0.00  0.00    +0.223 C 
ATOM      3  C   UNL     1       1.442   1.412 -21.303  0.00  0.00    +0.128 C 
ATOM      4  C   UNL     1       1.946   1.861 -22.310  0.00  0.00    +0.133 C 
ATOM      5  O   UNL     1       3.139   1.610 -22.298  0.00  0.00    -0.372 OA
ATOM      6  C   UNL     1       3.967   1.903 -23.141  0.00  0.00    +0.187 C 
ATOM      7  C   UNL     1       3.816   2.504 -24.179  0.00  0.00    +0.005 C 
ATOM      8  C   UNL     1       2.804   2.966 -24.642  0.00  0.00    -0.023 C 
ATOM      9  C   UNL     1       1.105   4.113 -26.095  0.00  0.00    +0.163 C 
ATOM     10  N   UNL     1      -1.237   4.078 -25.156  0.00  0.00    +0.241 N 
ATOM     11  H   UNL     1      -1.977   4.526 -25.695  0.00  0.00    +0.204 HD
ATOM     12  C   UNL     1      -2.205   3.890 -24.452  0.00  0.00    +0.133 C 
ATOM     13  C   UNL     1      -1.858   3.277 -23.466  0.00  0.00    +0.070 C 
ATOM     14  C   UNL     1      -0.655   3.083 -23.562  0.00  0.00    +0.064 C 
ATOM     15  C   UNL     1      -1.760   3.029 -23.051  0.00  0.00    -0.012 A 
ATOM     16  C   UNL     1      -2.855   3.447 -23.402  0.00  0.00    +0.006 A 
ATOM     17  C   UNL     1      -3.837   3.260 -22.695  0.00  0.00    +0.000 A 
ATOM     18  C   UNL     1      -3.723   2.656 -21.637  0.00  0.00    +0.002 A 
ATOM     19  C   UNL     1      -2.628   2.238 -21.286  0.00  0.00    +0.024 A 
ATOM     20  C   UNL     1      -1.646   2.424 -21.992  0.00  0.00    +0.041 A 
ATOM     21  C   UNL     1       0.128   2.523 -22.836  0.00  0.00    +0.104 C 
ATOM     22  C   UNL     1      -0.275   3.572 -24.595  0.00  0.00    +0.078 C 
ATOM     23  C   UNL     1       0.893   3.509 -24.915  0.00  0.00    +0.064 C 
ATOM     24  C   UNL     1       1.685   2.939 -24.174  0.00  0.00    +0.032 C 
ATOM     25  C   UNL     1       1.305   2.449 -23.141  0.00  0.00    +0.048 C 
ATOM     26  N   UNL     1      -0.481   2.115 -21.865  0.00  0.00    -0.267 N 
ENDROOT
TORSDOF 0
ENDMDL
