MODEL 1
REMARK VINA RESULT:    -8.847      0.000      0.000
REMARK INTER + INTRA:          -8.450
REMARK INTER:                 -10.663
REMARK INTRA:                   2.214
REMARK UNBOUND:                 2.724
REMARK  Name = ZINC000005175910
REMARK  7 active torsions:
REMARK  status: ('A' for Active; 'I' for Inactive)
REMARK    1  A    between atoms: C_1  and  N_2
REMARK    2  A    between atoms: N_2  and  C_3
REMARK    3  A    between atoms: N_2  and  C_10
REMARK    4  A    between atoms: C_3  and  C_4
REMARK    5  A    between atoms: C_10  and  C_11
REMARK    6  A    between atoms: C_10  and  C_18
REMARK    7  A    between atoms: C_11  and  C_12
REMARK                            x       y       z     vdW  Elec       q    Type
REMARK                         _______ _______ _______ _____ _____    ______ ____
ROOT
ATOM      1  C   UNL     1      -0.887   2.774 -23.261  0.00  0.00    +0.116 C 
ENDROOT
BRANCH   1   2
ATOM      2  C   UNL     1      -0.588   2.081 -22.202  0.00  0.00    +0.090 C 
ATOM      3  O   UNL     1      -1.123   2.381 -21.057  0.00  0.00    -0.544 OA
ATOM      4  O   UNL     1       0.247   1.088 -22.290  0.00  0.00    -0.544 OA
ENDBRANCH   1   2
BRANCH   1   6
ATOM      5  C   UNL     1      -0.506   4.947 -22.813  0.00  0.00    +0.191 C 
ATOM      6  N   UNL     1      -0.255   3.881 -23.513  0.00  0.00    +0.243 N 
ATOM      7  H   UNL     1       0.460   4.149 -24.190  0.00  0.00    +0.204 HD
BRANCH   6   8
ATOM      8  C   UNL     1       0.629   3.923 -24.465  0.00  0.00    +0.168 C 
BRANCH   8   9
ATOM      9  C   UNL     1       1.848   3.535 -24.238  0.00  0.00    -0.003 A 
ATOM     10  C   UNL     1       2.649   4.285 -23.540  0.00  0.00    +0.009 A 
ATOM     11  C   UNL     1       3.869   3.898 -23.312  0.00  0.00    +0.000 A 
ATOM     12  C   UNL     1       4.289   2.761 -23.783  0.00  0.00    +0.000 A 
ATOM     13  C   UNL     1       3.488   2.012 -24.482  0.00  0.00    +0.000 A 
ATOM     14  C   UNL     1       2.268   2.399 -24.709  0.00  0.00    +0.009 A 
ENDBRANCH   8   9
ENDBRANCH   6   8
ENDBRANCH   1   6
BRANCH   1  15
ATOM     15  C   UNL     1      -1.819   2.359 -24.067  0.00  0.00    +0.095 C 
BRANCH  15  16
ATOM     16  C   UNL     1      -2.950   2.994 -24.136  0.00  0.00    -0.042 A 
ATOM     17  C   UNL     1      -3.742   3.027 -23.105  0.00  0.00    +0.004 A 
ATOM     18  C   UNL     1      -4.874   3.662 -23.172  0.00  0.00    +0.000 A 
ATOM     19  C   UNL     1      -5.214   4.266 -24.272  0.00  0.00    +0.000 A 
ATOM     20  C   UNL     1      -4.423   4.234 -25.304  0.00  0.00    +0.000 A 
ATOM     21  C   UNL     1      -3.291   3.598 -25.235  0.00  0.00    +0.004 A 
ENDBRANCH  15  16
ENDBRANCH   1  15
TORSDOF 6
ENDMDL
MODEL 2
REMARK VINA RESULT:    -8.791      2.123      4.463
REMARK INTER + INTRA:          -8.380
REMARK INTER:                  -9.481
REMARK INTRA:                   1.102
REMARK UNBOUND:                 2.724
REMARK  Name = ZINC000005175910
REMARK  7 active torsions:
REMARK  status: ('A' for Active; 'I' for Inactive)
REMARK    1  A    between atoms: C_1  and  N_2
REMARK    2  A    between atoms: N_2  and  C_3
REMARK    3  A    between atoms: N_2  and  C_10
REMARK    4  A    between atoms: C_3  and  C_4
REMARK    5  A    between atoms: C_10  and  C_11
REMARK    6  A    between atoms: C_10  and  C_18
REMARK    7  A    between atoms: C_11  and  C_12
REMARK                            x       y       z     vdW  Elec       q    Type
REMARK                         _______ _______ _______ _____ _____    ______ ____
ROOT
ATOM      1  C   UNL     1      -0.279   2.963 -22.768  0.00  0.00    +0.116 C 
ENDROOT
BRANCH   1   2
ATOM      2  C   UNL     1       0.378   1.888 -23.088  0.00  0.00    +0.090 C 
ATOM      3  O   UNL     1       0.159   0.778 -22.450  0.00  0.00    -0.544 OA
ATOM      4  O   UNL     1       1.256   1.924 -24.047  0.00  0.00    -0.544 OA
ENDBRANCH   1   2
BRANCH   1   6
ATOM      5  C   UNL     1       0.004   5.125 -23.324  0.00  0.00    +0.191 C 
ATOM      6  N   UNL     1      -0.403   3.929 -23.628  0.00  0.00    +0.243 N 
ATOM      7  H   UNL     1      -0.776   3.989 -24.575  0.00  0.00    +0.204 HD
BRANCH   6   8
ATOM      8  C   UNL     1      -0.934   3.699 -24.792  0.00  0.00    +0.168 C 
BRANCH   8   9
ATOM      9  C   UNL     1      -2.225   3.731 -24.936  0.00  0.00    -0.003 A 
ATOM     10  C   UNL     1      -2.852   2.696 -25.412  0.00  0.00    +0.009 A 
ATOM     11  C   UNL     1      -4.143   2.727 -25.556  0.00  0.00    +0.000 A 
ATOM     12  C   UNL     1      -4.808   3.794 -25.224  0.00  0.00    +0.000 A 
ATOM     13  C   UNL     1      -4.182   4.829 -24.749  0.00  0.00    +0.000 A 
ATOM     14  C   UNL     1      -2.889   4.798 -24.605  0.00  0.00    +0.009 A 
ENDBRANCH   8   9
ENDBRANCH   6   8
ENDBRANCH   1   6
BRANCH   1  15
ATOM     15  C   UNL     1      -0.813   3.071 -21.587  0.00  0.00    +0.095 C 
BRANCH  15  16
ATOM     16  C   UNL     1      -2.103   3.162 -21.462  0.00  0.00    -0.042 A 
ATOM     17  C   UNL     1      -2.862   2.165 -21.810  0.00  0.00    +0.004 A 
ATOM     18  C   UNL     1      -4.153   2.255 -21.685  0.00  0.00    +0.000 A 
ATOM     19  C   UNL     1      -4.685   3.344 -21.213  0.00  0.00    +0.000 A 
ATOM     20  C   UNL     1      -3.927   4.341 -20.866  0.00  0.00    +0.000 A 
ATOM     21  C   UNL     1      -2.636   4.249 -20.991  0.00  0.00    +0.004 A 
ENDBRANCH  15  16
ENDBRANCH   1  15
TORSDOF 6
ENDMDL
MODEL 3
REMARK VINA RESULT:    -8.702      2.147      5.972
REMARK INTER + INTRA:          -8.267
REMARK INTER:                 -10.360
REMARK INTRA:                   2.093
REMARK UNBOUND:                 2.724
REMARK  Name = ZINC000005175910
REMARK  7 active torsions:
REMARK  status: ('A' for Active; 'I' for Inactive)
REMARK    1  A    between atoms: C_1  and  N_2
REMARK    2  A    between atoms: N_2  and  C_3
REMARK    3  A    between atoms: N_2  and  C_10
REMARK    4  A    between atoms: C_3  and  C_4
REMARK    5  A    between atoms: C_10  and  C_11
REMARK    6  A    between atoms: C_10  and  C_18
REMARK    7  A    between atoms: C_11  and  C_12
REMARK                            x       y       z     vdW  Elec       q    Type
REMARK                         _______ _______ _______ _____ _____    ______ ____
ROOT
ATOM      1  C   UNL     1       0.230   3.360 -24.106  0.00  0.00    +0.116 C 
ENDROOT
BRANCH   1   2
ATOM      2  C   UNL     1       0.505   4.584 -23.764  0.00  0.00    +0.090 C 
ATOM      3  O   UNL     1      -0.114   5.135 -22.764  0.00  0.00    -0.544 OA
ATOM      4  O   UNL     1       1.401   5.257 -24.425  0.00  0.00    -0.544 OA
ENDBRANCH   1   2
BRANCH   1   6
ATOM      5  C   UNL     1      -1.571   3.484 -25.452  0.00  0.00    +0.191 C 
ATOM      6  N   UNL     1      -0.995   3.023 -24.381  0.00  0.00    +0.243 N 
ATOM      7  H   UNL     1      -1.685   2.428 -23.922  0.00  0.00    +0.204 HD
BRANCH   6   8
ATOM      8  C   UNL     1      -1.644   2.225 -23.586  0.00  0.00    +0.168 C 
BRANCH   8   9
ATOM      9  C   UNL     1      -2.456   2.712 -22.697  0.00  0.00    -0.003 A 
ATOM     10  C   UNL     1      -3.668   3.041 -23.034  0.00  0.00    +0.009 A 
ATOM     11  C   UNL     1      -4.482   3.528 -22.145  0.00  0.00    +0.000 A 
ATOM     12  C   UNL     1      -4.083   3.686 -20.918  0.00  0.00    +0.000 A 
ATOM     13  C   UNL     1      -2.872   3.357 -20.580  0.00  0.00    +0.000 A 
ATOM     14  C   UNL     1      -2.058   2.870 -21.470  0.00  0.00    +0.009 A 
ENDBRANCH   8   9
ENDBRANCH   6   8
ENDBRANCH   1   6
BRANCH   1  15
ATOM     15  C   UNL     1       1.179   2.475 -24.172  0.00  0.00    +0.095 C 
BRANCH  15  16
ATOM     16  C   UNL     1       1.925   2.243 -23.133  0.00  0.00    -0.042 A 
ATOM     17  C   UNL     1       1.410   1.702 -22.070  0.00  0.00    +0.004 A 
ATOM     18  C   UNL     1       2.155   1.469 -21.031  0.00  0.00    +0.000 A 
ATOM     19  C   UNL     1       3.418   1.779 -21.055  0.00  0.00    +0.000 A 
ATOM     20  C   UNL     1       3.934   2.320 -22.119  0.00  0.00    +0.000 A 
ATOM     21  C   UNL     1       3.187   2.552 -23.157  0.00  0.00    +0.004 A 
ENDBRANCH  15  16
ENDBRANCH   1  15
TORSDOF 6
ENDMDL
MODEL 4
REMARK VINA RESULT:    -8.565      2.347      3.075
REMARK INTER + INTRA:          -8.094
REMARK INTER:                 -10.251
REMARK INTRA:                   2.157
REMARK UNBOUND:                 2.724
REMARK  Name = ZINC000005175910
REMARK  7 active torsions:
REMARK  status: ('A' for Active; 'I' for Inactive)
REMARK    1  A    between atoms: C_1  and  N_2
REMARK    2  A    between atoms: N_2  and  C_3
REMARK    3  A    between atoms: N_2  and  C_10
REMARK    4  A    between atoms: C_3  and  C_4
REMARK    5  A    between atoms: C_10  and  C_11
REMARK    6  A    between atoms: C_10  and  C_18
REMARK    7  A    between atoms: C_11  and  C_12
REMARK                            x       y       z     vdW  Elec       q    Type
REMARK                         _______ _______ _______ _____ _____    ______ ____
ROOT
ATOM      1  C   UNL     1      -2.174   3.566 -24.711  0.00  0.00    +0.116 C 
ENDROOT
BRANCH   1   2
ATOM      2  C   UNL     1      -2.928   3.942 -25.701  0.00  0.00    +0.090 C 
ATOM      3  O   UNL     1      -2.797   3.384 -26.866  0.00  0.00    -0.544 OA
ATOM      4  O   UNL     1      -3.815   4.877 -25.523  0.00  0.00    -0.544 OA
ENDBRANCH   1   2
BRANCH   1   6
ATOM      5  C   UNL     1      -0.990   5.271 -23.841  0.00  0.00    +0.191 C 
ATOM      6  N   UNL     1      -1.034   4.154 -24.504  0.00  0.00    +0.243 N 
ATOM      7  H   UNL     1      -0.069   3.936 -24.756  0.00  0.00    +0.204 HD
BRANCH   6   8
ATOM      8  C   UNL     1       0.063   3.625 -24.959  0.00  0.00    +0.168 C 
BRANCH   8   9
ATOM      9  C   UNL     1       1.041   3.355 -24.146  0.00  0.00    -0.003 A 
ATOM     10  C   UNL     1       2.077   4.138 -24.093  0.00  0.00    +0.009 A 
ATOM     11  C   UNL     1       3.056   3.868 -23.281  0.00  0.00    +0.000 A 
ATOM     12  C   UNL     1       2.997   2.815 -22.521  0.00  0.00    +0.000 A 
ATOM     13  C   UNL     1       1.961   2.032 -22.574  0.00  0.00    +0.000 A 
ATOM     14  C   UNL     1       0.982   2.302 -23.387  0.00  0.00    +0.009 A 
ENDBRANCH   8   9
ENDBRANCH   6   8
ENDBRANCH   1   6
BRANCH   1  15
ATOM     15  C   UNL     1      -2.560   2.601 -23.929  0.00  0.00    +0.095 C 
BRANCH  15  16
ATOM     16  C   UNL     1      -2.994   2.867 -22.734  0.00  0.00    -0.042 A 
ATOM     17  C   UNL     1      -4.240   3.188 -22.550  0.00  0.00    +0.004 A 
ATOM     18  C   UNL     1      -4.675   3.454 -21.354  0.00  0.00    +0.000 A 
ATOM     19  C   UNL     1      -3.862   3.400 -20.341  0.00  0.00    +0.000 A 
ATOM     20  C   UNL     1      -2.615   3.080 -20.524  0.00  0.00    +0.000 A 
ATOM     21  C   UNL     1      -2.182   2.813 -21.721  0.00  0.00    +0.004 A 
ENDBRANCH  15  16
ENDBRANCH   1  15
TORSDOF 6
ENDMDL
MODEL 5
REMARK VINA RESULT:    -8.507      0.870      6.125
REMARK INTER + INTRA:          -8.021
REMARK INTER:                 -10.902
REMARK INTRA:                   2.882
REMARK UNBOUND:                 2.724
REMARK  Name = ZINC000005175910
REMARK  7 active torsions:
REMARK  status: ('A' for Active; 'I' for Inactive)
REMARK    1  A    between atoms: C_1  and  N_2
REMARK    2  A    between atoms: N_2  and  C_3
REMARK    3  A    between atoms: N_2  and  C_10
REMARK    4  A    between atoms: C_3  and  C_4
REMARK    5  A    between atoms: C_10  and  C_11
REMARK    6  A    between atoms: C_10  and  C_18
REMARK    7  A    between atoms: C_11  and  C_12
REMARK                            x       y       z     vdW  Elec       q    Type
REMARK                         _______ _______ _______ _____ _____    ______ ____
ROOT
ATOM      1  C   UNL     1       0.105   2.702 -23.451  0.00  0.00    +0.116 C 
ENDROOT
BRANCH   1   2
ATOM      2  C   UNL     1       0.188   1.937 -22.404  0.00  0.00    +0.090 C 
ATOM      3  O   UNL     1      -0.243   2.361 -21.254  0.00  0.00    -0.544 OA
ATOM      4  O   UNL     1       0.701   0.746 -22.507  0.00  0.00    -0.544 OA
ENDBRANCH   1   2
BRANCH   1   6
ATOM      5  C   UNL     1      -0.957   4.685 -23.376  0.00  0.00    +0.191 C 
ATOM      6  N   UNL     1      -0.962   3.415 -23.653  0.00  0.00    +0.243 N 
ATOM      7  H   UNL     1      -1.896   3.207 -24.009  0.00  0.00    +0.204 HD
BRANCH   6   8
ATOM      8  C   UNL     1      -2.036   2.859 -24.130  0.00  0.00    +0.168 C 
BRANCH   8   9
ATOM      9  C   UNL     1      -3.185   3.071 -23.563  0.00  0.00    -0.003 A 
ATOM     10  C   UNL     1      -4.144   3.643 -24.230  0.00  0.00    +0.009 A 
ATOM     11  C   UNL     1      -5.294   3.856 -23.664  0.00  0.00    +0.000 A 
ATOM     12  C   UNL     1      -5.486   3.496 -22.429  0.00  0.00    +0.000 A 
ATOM     13  C   UNL     1      -4.529   2.924 -21.762  0.00  0.00    +0.000 A 
ATOM     14  C   UNL     1      -3.378   2.711 -22.329  0.00  0.00    +0.009 A 
ENDBRANCH   8   9
ENDBRANCH   6   8
ENDBRANCH   1   6
BRANCH   1  15
ATOM     15  C   UNL     1       1.091   2.754 -24.297  0.00  0.00    +0.095 C 
BRANCH  15  16
ATOM     16  C   UNL     1       2.243   3.225 -23.925  0.00  0.00    -0.042 A 
ATOM     17  C   UNL     1       2.337   4.445 -23.488  0.00  0.00    +0.004 A 
ATOM     18  C   UNL     1       3.489   4.917 -23.115  0.00  0.00    +0.000 A 
ATOM     19  C   UNL     1       4.549   4.167 -23.180  0.00  0.00    +0.000 A 
ATOM     20  C   UNL     1       4.457   2.946 -23.618  0.00  0.00    +0.000 A 
ATOM     21  C   UNL     1       3.304   2.476 -23.990  0.00  0.00    +0.004 A 
ENDBRANCH  15  16
ENDBRANCH   1  15
TORSDOF 6
ENDMDL
MODEL 6
REMARK VINA RESULT:    -8.367      1.282      2.068
REMARK INTER + INTRA:          -7.844
REMARK INTER:                 -10.468
REMARK INTRA:                   2.624
REMARK UNBOUND:                 2.724
REMARK  Name = ZINC000005175910
REMARK  7 active torsions:
REMARK  status: ('A' for Active; 'I' for Inactive)
REMARK    1  A    between atoms: C_1  and  N_2
REMARK    2  A    between atoms: N_2  and  C_3
REMARK    3  A    between atoms: N_2  and  C_10
REMARK    4  A    between atoms: C_3  and  C_4
REMARK    5  A    between atoms: C_10  and  C_11
REMARK    6  A    between atoms: C_10  and  C_18
REMARK    7  A    between atoms: C_11  and  C_12
REMARK                            x       y       z     vdW  Elec       q    Type
REMARK                         _______ _______ _______ _____ _____    ______ ____
ROOT
ATOM      1  C   UNL     1      -0.482   3.408 -23.015  0.00  0.00    +0.116 C 
ENDROOT
BRANCH   1   2
ATOM      2  C   UNL     1      -0.128   2.254 -22.533  0.00  0.00    +0.090 C 
ATOM      3  O   UNL     1      -0.667   1.164 -22.991  0.00  0.00    -0.544 OA
ATOM      4  O   UNL     1       0.768   2.190 -21.591  0.00  0.00    -0.544 OA
ENDBRANCH   1   2
BRANCH   1   6
ATOM      5  C   UNL     1      -0.673   3.460 -25.257  0.00  0.00    +0.191 C 
ATOM      6  N   UNL     1      -0.037   3.792 -24.174  0.00  0.00    +0.243 N 
ATOM      7  H   UNL     1       0.767   4.344 -24.475  0.00  0.00    +0.204 HD
BRANCH   6   8
ATOM      8  C   UNL     1       1.045   4.509 -24.249  0.00  0.00    +0.168 C 
BRANCH   8   9
ATOM      9  C   UNL     1       2.203   3.965 -24.020  0.00  0.00    -0.003 A 
ATOM     10  C   UNL     1       3.034   4.528 -23.193  0.00  0.00    +0.009 A 
ATOM     11  C   UNL     1       4.192   3.984 -22.963  0.00  0.00    +0.000 A 
ATOM     12  C   UNL     1       4.520   2.877 -23.561  0.00  0.00    +0.000 A 
ATOM     13  C   UNL     1       3.689   2.314 -24.388  0.00  0.00    +0.000 A 
ATOM     14  C   UNL     1       2.530   2.858 -24.617  0.00  0.00    +0.009 A 
ENDBRANCH   8   9
ENDBRANCH   6   8
ENDBRANCH   1   6
BRANCH   1  15
ATOM     15  C   UNL     1      -1.283   4.176 -22.338  0.00  0.00    +0.095 C 
BRANCH  15  16
ATOM     16  C   UNL     1      -2.484   3.772 -22.050  0.00  0.00    -0.042 A 
ATOM     17  C   UNL     1      -3.393   3.720 -22.977  0.00  0.00    +0.004 A 
ATOM     18  C   UNL     1      -4.594   3.316 -22.690  0.00  0.00    +0.000 A 
ATOM     19  C   UNL     1      -4.886   2.963 -21.473  0.00  0.00    +0.000 A 
ATOM     20  C   UNL     1      -3.978   3.014 -20.545  0.00  0.00    +0.000 A 
ATOM     21  C   UNL     1      -2.776   3.419 -20.834  0.00  0.00    +0.004 A 
ENDBRANCH  15  16
ENDBRANCH   1  15
TORSDOF 6
ENDMDL
MODEL 7
REMARK VINA RESULT:    -8.143      1.739      6.390
REMARK INTER + INTRA:          -7.560
REMARK INTER:                 -10.143
REMARK INTRA:                   2.583
REMARK UNBOUND:                 2.724
REMARK  Name = ZINC000005175910
REMARK  7 active torsions:
REMARK  status: ('A' for Active; 'I' for Inactive)
REMARK    1  A    between atoms: C_1  and  N_2
REMARK    2  A    between atoms: N_2  and  C_3
REMARK    3  A    between atoms: N_2  and  C_10
REMARK    4  A    between atoms: C_3  and  C_4
REMARK    5  A    between atoms: C_10  and  C_11
REMARK    6  A    between atoms: C_10  and  C_18
REMARK    7  A    between atoms: C_11  and  C_12
REMARK                            x       y       z     vdW  Elec       q    Type
REMARK                         _______ _______ _______ _____ _____    ______ ____
ROOT
ATOM      1  C   UNL     1       0.938   3.065 -23.929  0.00  0.00    +0.116 C 
ENDROOT
BRANCH   1   2
ATOM      2  C   UNL     1       1.274   3.023 -25.184  0.00  0.00    +0.090 C 
ATOM      3  O   UNL     1       1.207   4.096 -25.912  0.00  0.00    -0.544 OA
ATOM      4  O   UNL     1       1.678   1.904 -25.711  0.00  0.00    -0.544 OA
ENDBRANCH   1   2
BRANCH   1   6
ATOM      5  C   UNL     1      -0.460   4.597 -23.055  0.00  0.00    +0.191 C 
ATOM      6  N   UNL     1      -0.262   3.429 -23.590  0.00  0.00    +0.243 N 
ATOM      7  H   UNL     1      -1.178   2.983 -23.644  0.00  0.00    +0.204 HD
BRANCH   6   8
ATOM      8  C   UNL     1      -1.265   2.625 -23.786  0.00  0.00    +0.168 C 
BRANCH   8   9
ATOM      9  C   UNL     1      -2.372   3.079 -24.293  0.00  0.00    -0.003 A 
ATOM     10  C   UNL     1      -3.392   3.315 -23.522  0.00  0.00    +0.009 A 
ATOM     11  C   UNL     1      -4.500   3.768 -24.028  0.00  0.00    +0.000 A 
ATOM     12  C   UNL     1      -4.588   3.986 -25.307  0.00  0.00    +0.000 A 
ATOM     13  C   UNL     1      -3.569   3.751 -26.078  0.00  0.00    +0.000 A 
ATOM     14  C   UNL     1      -2.460   3.297 -25.571  0.00  0.00    +0.009 A 
ENDBRANCH   8   9
ENDBRANCH   6   8
ENDBRANCH   1   6
BRANCH   1  15
ATOM     15  C   UNL     1       1.804   2.744 -23.014  0.00  0.00    +0.095 C 
BRANCH  15  16
ATOM     16  C   UNL     1       3.001   3.247 -23.046  0.00  0.00    -0.042 A 
ATOM     17  C   UNL     1       4.035   2.463 -23.129  0.00  0.00    +0.004 A 
ATOM     18  C   UNL     1       5.233   2.965 -23.161  0.00  0.00    +0.000 A 
ATOM     19  C   UNL     1       5.398   4.254 -23.110  0.00  0.00    +0.000 A 
ATOM     20  C   UNL     1       4.365   5.039 -23.026  0.00  0.00    +0.000 A 
ATOM     21  C   UNL     1       3.167   4.535 -22.994  0.00  0.00    +0.004 A 
ENDBRANCH  15  16
ENDBRANCH   1  15
TORSDOF 6
ENDMDL
MODEL 8
REMARK VINA RESULT:    -7.991      2.081      6.109
REMARK INTER + INTRA:          -7.369
REMARK INTER:                  -9.697
REMARK INTRA:                   2.327
REMARK UNBOUND:                 2.724
REMARK  Name = ZINC000005175910
REMARK  7 active torsions:
REMARK  status: ('A' for Active; 'I' for Inactive)
REMARK    1  A    between atoms: C_1  and  N_2
REMARK    2  A    between atoms: N_2  and  C_3
REMARK    3  A    between atoms: N_2  and  C_10
REMARK    4  A    between atoms: C_3  and  C_4
REMARK    5  A    between atoms: C_10  and  C_11
REMARK    6  A    between atoms: C_10  and  C_18
REMARK    7  A    between atoms: C_11  and  C_12
REMARK                            x       y       z     vdW  Elec       q    Type
REMARK                         _______ _______ _______ _____ _____    ______ ____
ROOT
ATOM      1  C   UNL     1       0.174   3.475 -23.460  0.00  0.00    +0.116 C 
ENDROOT
BRANCH   1   2
ATOM      2  C   UNL     1       0.982   4.440 -23.785  0.00  0.00    +0.090 C 
ATOM      3  O   UNL     1       1.539   5.161 -22.859  0.00  0.00    -0.544 OA
ATOM      4  O   UNL     1       1.233   4.683 -25.037  0.00  0.00    -0.544 OA
ENDBRANCH   1   2
BRANCH   1   6
ATOM      5  C   UNL     1      -1.387   3.173 -21.866  0.00  0.00    +0.191 C 
ATOM      6  N   UNL     1      -0.997   3.747 -22.966  0.00  0.00    +0.243 N 
ATOM      7  H   UNL     1      -1.761   4.358 -23.253  0.00  0.00    +0.204 HD
BRANCH   6   8
ATOM      8  C   UNL     1      -1.777   4.592 -23.570  0.00  0.00    +0.168 C 
BRANCH   8   9
ATOM      9  C   UNL     1      -2.701   4.162 -24.377  0.00  0.00    -0.003 A 
ATOM     10  C   UNL     1      -2.378   3.705 -25.550  0.00  0.00    +0.009 A 
ATOM     11  C   UNL     1      -3.301   3.275 -26.358  0.00  0.00    +0.000 A 
ATOM     12  C   UNL     1      -4.548   3.302 -25.992  0.00  0.00    +0.000 A 
ATOM     13  C   UNL     1      -4.872   3.759 -24.819  0.00  0.00    +0.000 A 
ATOM     14  C   UNL     1      -3.948   4.190 -24.011  0.00  0.00    +0.009 A 
ENDBRANCH   8   9
ENDBRANCH   6   8
ENDBRANCH   1   6
BRANCH   1  15
ATOM     15  C   UNL     1       0.538   2.238 -23.629  0.00  0.00    +0.095 C 
BRANCH  15  16
ATOM     16  C   UNL     1       1.643   1.807 -23.099  0.00  0.00    -0.042 A 
ATOM     17  C   UNL     1       2.667   1.543 -23.856  0.00  0.00    +0.004 A 
ATOM     18  C   UNL     1       3.773   1.112 -23.327  0.00  0.00    +0.000 A 
ATOM     19  C   UNL     1       3.856   0.945 -22.040  0.00  0.00    +0.000 A 
ATOM     20  C   UNL     1       2.832   1.208 -21.283  0.00  0.00    +0.000 A 
ATOM     21  C   UNL     1       1.726   1.640 -21.813  0.00  0.00    +0.004 A 
ENDBRANCH  15  16
ENDBRANCH   1  15
TORSDOF 6
ENDMDL
MODEL 9
REMARK VINA RESULT:    -7.967      1.255      5.868
REMARK INTER + INTRA:          -7.339
REMARK INTER:                 -10.063
REMARK INTRA:                   2.724
REMARK UNBOUND:                 2.724
REMARK  Name = ZINC000005175910
REMARK  7 active torsions:
REMARK  status: ('A' for Active; 'I' for Inactive)
REMARK    1  A    between atoms: C_1  and  N_2
REMARK    2  A    between atoms: N_2  and  C_3
REMARK    3  A    between atoms: N_2  and  C_10
REMARK    4  A    between atoms: C_3  and  C_4
REMARK    5  A    between atoms: C_10  and  C_11
REMARK    6  A    between atoms: C_10  and  C_18
REMARK    7  A    between atoms: C_11  and  C_12
REMARK                            x       y       z     vdW  Elec       q    Type
REMARK                         _______ _______ _______ _____ _____    ______ ____
ROOT
ATOM      1  C   UNL     1       0.037   2.986 -23.221  0.00  0.00    +0.116 C 
ENDROOT
BRANCH   1   2
ATOM      2  C   UNL     1       0.115   1.928 -22.469  0.00  0.00    +0.090 C 
ATOM      3  O   UNL     1      -0.649   0.905 -22.705  0.00  0.00    -0.544 OA
ATOM      4  O   UNL     1       0.959   1.895 -21.480  0.00  0.00    -0.544 OA
ENDBRANCH   1   2
BRANCH   1   6
ATOM      5  C   UNL     1      -1.547   3.957 -21.950  0.00  0.00    +0.191 C 
ATOM      6  N   UNL     1      -0.978   3.790 -23.106  0.00  0.00    +0.243 N 
ATOM      7  H   UNL     1      -1.489   4.382 -23.762  0.00  0.00    +0.204 HD
BRANCH   6   8
ATOM      8  C   UNL     1      -1.423   4.428 -24.148  0.00  0.00    +0.168 C 
BRANCH   8   9
ATOM      9  C   UNL     1      -2.532   4.056 -24.714  0.00  0.00    -0.003 A 
ATOM     10  C   UNL     1      -2.500   3.360 -25.811  0.00  0.00    +0.009 A 
ATOM     11  C   UNL     1      -3.609   2.987 -26.378  0.00  0.00    +0.000 A 
ATOM     12  C   UNL     1      -4.751   3.310 -25.846  0.00  0.00    +0.000 A 
ATOM     13  C   UNL     1      -4.783   4.006 -24.748  0.00  0.00    +0.000 A 
ATOM     14  C   UNL     1      -3.673   4.379 -24.182  0.00  0.00    +0.009 A 
ENDBRANCH   8   9
ENDBRANCH   6   8
ENDBRANCH   1   6
BRANCH   1  15
ATOM     15  C   UNL     1       0.973   3.239 -24.086  0.00  0.00    +0.095 C 
BRANCH  15  16
ATOM     16  C   UNL     1       2.061   3.842 -23.710  0.00  0.00    -0.042 A 
ATOM     17  C   UNL     1       2.014   5.075 -23.302  0.00  0.00    +0.004 A 
ATOM     18  C   UNL     1       3.102   5.679 -22.925  0.00  0.00    +0.000 A 
ATOM     19  C   UNL     1       4.238   5.048 -22.958  0.00  0.00    +0.000 A 
ATOM     20  C   UNL     1       4.286   3.815 -23.366  0.00  0.00    +0.000 A 
ATOM     21  C   UNL     1       3.197   3.212 -23.742  0.00  0.00    +0.004 A 
ENDBRANCH  15  16
ENDBRANCH   1  15
TORSDOF 6
ENDMDL
