MODEL 1
REMARK VINA RESULT:   -11.057      0.000      0.000
REMARK INTER + INTRA:         -11.811
REMARK INTER:                 -11.685
REMARK INTRA:                  -0.127
REMARK UNBOUND:                -0.108
REMARK  Name = ZINC000096316328
REMARK  2 active torsions:
REMARK  status: ('A' for Active; 'I' for Inactive)
REMARK    1  A    between atoms: C_1  and  O_2
REMARK    2  A    between atoms: O_2  and  C_3
REMARK                            x       y       z     vdW  Elec       q    Type
REMARK                         _______ _______ _______ _____ _____    ______ ____
ROOT
ATOM      1  C   UNL     1      -0.010   2.880 -23.829  0.00  0.00    +0.162 A 
ATOM      2  C   UNL     1      -0.104   3.363 -24.987  0.00  0.00    +0.050 A 
ATOM      3  C   UNL     1      -1.205   3.762 -25.415  0.00  0.00    +0.008 A 
ATOM      4  C   UNL     1      -2.218   3.683 -24.696  0.00  0.00    -0.034 A 
ATOM      5  C   UNL     1      -2.145   3.205 -23.541  0.00  0.00    +0.016 A 
ATOM      6  C   UNL     1      -3.158   3.126 -22.821  0.00  0.00    +0.071 C 
ATOM      7  C   UNL     1      -4.242   2.988 -21.917  0.00  0.00    +0.071 C 
ATOM      8  C   UNL     1      -5.494   3.429 -22.372  0.00  0.00    +0.131 C 
ATOM      9  N   UNL     1      -5.560   3.962 -23.669  0.00  0.00    +0.233 N 
ATOM     10  H   UNL     1      -5.830   4.937 -23.542  0.00  0.00    +0.202 HD
ATOM     11  H   UNL     1      -6.224   3.398 -24.201  0.00  0.00    +0.202 HD
ATOM     12  C   UNL     1      -4.352   4.008 -24.407  0.00  0.00    +0.095 C 
ATOM     13  C   UNL     1      -4.259   3.525 -23.249  0.00  0.00    -0.007 C 
ATOM     14  C   UNL     1      -5.284   3.445 -22.521  0.00  0.00    +0.006 C 
ATOM     15  C   UNL     1      -5.199   2.969 -21.374  0.00  0.00    -0.000 C 
ATOM     16  C   UNL     1      -4.091   2.564 -20.935  0.00  0.00    +0.018 C 
ATOM     17  C   UNL     1      -3.077   2.642 -21.654  0.00  0.00    +0.212 C 
ATOM     18  O   UNL     1      -1.600   2.389 -21.783  0.00  0.00    -0.480 OA
ATOM     19  C   UNL     1      -3.339   4.087 -25.127  0.00  0.00    +0.094 C 
ATOM     20  C   UNL     1      -1.037   2.801 -23.101  0.00  0.00    +0.167 A 
ENDROOT
BRANCH   1  22
ATOM     21  C   UNL     1       2.036   3.287 -23.239  0.00  0.00    +0.277 C 
ATOM     22  O   UNL     1       1.101   2.479 -23.400  0.00  0.00    -0.491 OA
ENDBRANCH   1  22
TORSDOF 1
ENDMDL
MODEL 2
REMARK VINA RESULT:   -10.988      1.214      2.608
REMARK INTER + INTRA:         -11.738
REMARK INTER:                 -11.595
REMARK INTRA:                  -0.143
REMARK UNBOUND:                -0.108
REMARK  Name = ZINC000096316328
REMARK  2 active torsions:
REMARK  status: ('A' for Active; 'I' for Inactive)
REMARK    1  A    between atoms: C_1  and  O_2
REMARK    2  A    between atoms: O_2  and  C_3
REMARK                            x       y       z     vdW  Elec       q    Type
REMARK                         _______ _______ _______ _____ _____    ______ ____
ROOT
ATOM      1  C   UNL     1       0.076   2.256 -23.255  0.00  0.00    +0.162 A 
ATOM      2  C   UNL     1       0.079   1.881 -22.053  0.00  0.00    +0.050 A 
ATOM      3  C   UNL     1      -0.959   1.955 -21.368  0.00  0.00    +0.008 A 
ATOM      4  C   UNL     1      -2.007   2.402 -21.872  0.00  0.00    -0.034 A 
ATOM      5  C   UNL     1      -2.030   2.781 -23.065  0.00  0.00    +0.016 A 
ATOM      6  C   UNL     1      -3.078   3.228 -23.569  0.00  0.00    +0.071 C 
ATOM      7  C   UNL     1      -4.209   3.752 -24.244  0.00  0.00    +0.071 C 
ATOM      8  C   UNL     1      -5.393   3.847 -23.498  0.00  0.00    +0.131 C 
ATOM      9  N   UNL     1      -5.351   3.419 -22.161  0.00  0.00    +0.233 N 
ATOM     10  H   UNL     1      -5.987   2.622 -22.118  0.00  0.00    +0.202 HD
ATOM     11  H   UNL     1      -5.614   4.211 -21.575  0.00  0.00    +0.202 HD
ATOM     12  C   UNL     1      -4.112   2.926 -21.683  0.00  0.00    +0.095 C 
ATOM     13  C   UNL     1      -4.116   3.302 -22.884  0.00  0.00    -0.007 C 
ATOM     14  C   UNL     1      -5.176   3.755 -23.393  0.00  0.00    +0.006 C 
ATOM     15  C   UNL     1      -5.187   4.128 -24.581  0.00  0.00    -0.000 C 
ATOM     16  C   UNL     1      -4.142   4.056 -25.279  0.00  0.00    +0.018 C 
ATOM     17  C   UNL     1      -3.094   3.609 -24.776  0.00  0.00    +0.212 C 
ATOM     18  O   UNL     1      -1.642   3.270 -24.978  0.00  0.00    -0.480 OA
ATOM     19  C   UNL     1      -3.065   2.479 -21.179  0.00  0.00    +0.094 C 
ATOM     20  C   UNL     1      -0.985   2.709 -23.763  0.00  0.00    +0.167 A 
ENDROOT
BRANCH   1  22
ATOM     21  C   UNL     1       1.828   3.194 -24.121  0.00  0.00    +0.277 C 
ATOM     22  O   UNL     1       1.125   2.181 -23.943  0.00  0.00    -0.491 OA
ENDBRANCH   1  22
TORSDOF 1
ENDMDL
MODEL 3
REMARK VINA RESULT:   -10.288      2.000      4.506
REMARK INTER + INTRA:         -10.997
REMARK INTER:                 -10.892
REMARK INTRA:                  -0.105
REMARK UNBOUND:                -0.108
REMARK  Name = ZINC000096316328
REMARK  2 active torsions:
REMARK  status: ('A' for Active; 'I' for Inactive)
REMARK    1  A    between atoms: C_1  and  O_2
REMARK    2  A    between atoms: O_2  and  C_3
REMARK                            x       y       z     vdW  Elec       q    Type
REMARK                         _______ _______ _______ _____ _____    ______ ____
ROOT
ATOM      1  C   UNL     1      -4.819   3.605 -22.912  0.00  0.00    +0.162 A 
ATOM      2  C   UNL     1      -4.954   4.021 -24.092  0.00  0.00    +0.050 A 
ATOM      3  C   UNL     1      -3.985   4.012 -24.876  0.00  0.00    +0.008 A 
ATOM      4  C   UNL     1      -2.878   3.590 -24.493  0.00  0.00    -0.034 A 
ATOM      5  C   UNL     1      -2.724   3.173 -23.322  0.00  0.00    +0.016 A 
ATOM      6  C   UNL     1      -1.617   2.751 -22.939  0.00  0.00    +0.071 C 
ATOM      7  C   UNL     1      -0.407   2.251 -22.396  0.00  0.00    +0.071 C 
ATOM      8  C   UNL     1       0.702   2.229 -23.256  0.00  0.00    +0.131 C 
ATOM      9  N   UNL     1       0.514   2.700 -24.565  0.00  0.00    +0.233 N 
ATOM     10  H   UNL     1       0.674   1.890 -25.164  0.00  0.00    +0.202 HD
ATOM     11  H   UNL     1       1.162   3.475 -24.710  0.00  0.00    +0.202 HD
ATOM     12  C   UNL     1      -0.783   3.158 -24.903  0.00  0.00    +0.095 C 
ATOM     13  C   UNL     1      -0.648   2.742 -23.723  0.00  0.00    -0.007 C 
ATOM     14  C   UNL     1       0.473   2.316 -23.335  0.00  0.00    +0.006 C 
ATOM     15  C   UNL     1       0.613   1.904 -22.169  0.00  0.00    -0.000 C 
ATOM     16  C   UNL     1      -0.361   1.910 -21.371  0.00  0.00    +0.018 C 
ATOM     17  C   UNL     1      -1.469   2.331 -21.754  0.00  0.00    +0.212 C 
ATOM     18  O   UNL     1      -2.905   2.604 -21.400  0.00  0.00    -0.480 OA
ATOM     19  C   UNL     1      -1.890   3.579 -25.287  0.00  0.00    +0.094 C 
ATOM     20  C   UNL     1      -3.698   3.179 -22.524  0.00  0.00    +0.167 A 
ENDROOT
BRANCH   1  22
ATOM     21  C   UNL     1      -6.290   2.542 -21.725  0.00  0.00    +0.277 C 
ATOM     22  O   UNL     1      -5.798   3.616 -22.123  0.00  0.00    -0.491 OA
ENDBRANCH   1  22
TORSDOF 1
ENDMDL
MODEL 4
REMARK VINA RESULT:    -9.770      1.488      2.989
REMARK INTER + INTRA:         -10.449
REMARK INTER:                 -10.344
REMARK INTRA:                  -0.106
REMARK UNBOUND:                -0.108
REMARK  Name = ZINC000096316328
REMARK  2 active torsions:
REMARK  status: ('A' for Active; 'I' for Inactive)
REMARK    1  A    between atoms: C_1  and  O_2
REMARK    2  A    between atoms: O_2  and  C_3
REMARK                            x       y       z     vdW  Elec       q    Type
REMARK                         _______ _______ _______ _____ _____    ______ ____
ROOT
ATOM      1  C   UNL     1       1.513   2.257 -23.682  0.00  0.00    +0.162 A 
ATOM      2  C   UNL     1       1.645   1.721 -22.551  0.00  0.00    +0.050 A 
ATOM      3  C   UNL     1       0.669   1.622 -21.783  0.00  0.00    +0.008 A 
ATOM      4  C   UNL     1      -0.444   2.056 -22.133  0.00  0.00    -0.034 A 
ATOM      5  C   UNL     1      -0.597   2.593 -23.254  0.00  0.00    +0.016 A 
ATOM      6  C   UNL     1      -1.711   3.027 -23.604  0.00  0.00    +0.071 C 
ATOM      7  C   UNL     1      -2.927   3.554 -24.106  0.00  0.00    +0.071 C 
ATOM      8  C   UNL     1      -4.045   3.457 -23.262  0.00  0.00    +0.131 C 
ATOM      9  N   UNL     1      -3.858   2.853 -22.009  0.00  0.00    +0.233 N 
ATOM     10  H   UNL     1      -4.437   2.013 -22.030  0.00  0.00    +0.202 HD
ATOM     11  H   UNL     1      -4.117   3.535 -21.296  0.00  0.00    +0.202 HD
ATOM     12  C   UNL     1      -2.553   2.392 -21.705  0.00  0.00    +0.095 C 
ATOM     13  C   UNL     1      -2.687   2.928 -22.836  0.00  0.00    -0.007 C 
ATOM     14  C   UNL     1      -3.814   3.367 -23.190  0.00  0.00    +0.006 C 
ATOM     15  C   UNL     1      -3.953   3.899 -24.307  0.00  0.00    -0.000 C 
ATOM     16  C   UNL     1      -2.971   4.002 -25.088  0.00  0.00    +0.018 C 
ATOM     17  C   UNL     1      -1.857   3.568 -24.739  0.00  0.00    +0.212 C 
ATOM     18  O   UNL     1      -0.411   3.369 -25.102  0.00  0.00    -0.480 OA
ATOM     19  C   UNL     1      -1.440   1.958 -21.355  0.00  0.00    +0.094 C 
ATOM     20  C   UNL     1       0.385   2.696 -24.035  0.00  0.00    +0.167 A 
ENDROOT
BRANCH   1  22
ATOM     21  C   UNL     1       3.651   2.160 -24.022  0.00  0.00    +0.277 C 
ATOM     22  O   UNL     1       2.499   2.355 -24.455  0.00  0.00    -0.491 OA
ENDBRANCH   1  22
TORSDOF 1
ENDMDL
MODEL 5
REMARK VINA RESULT:    -9.702      1.333      1.988
REMARK INTER + INTRA:         -10.377
REMARK INTER:                 -10.270
REMARK INTRA:                  -0.106
REMARK UNBOUND:                -0.108
REMARK  Name = ZINC000096316328
REMARK  2 active torsions:
REMARK  status: ('A' for Active; 'I' for Inactive)
REMARK    1  A    between atoms: C_1  and  O_2
REMARK    2  A    between atoms: O_2  and  C_3
REMARK                            x       y       z     vdW  Elec       q    Type
REMARK                         _______ _______ _______ _____ _____    ______ ____
ROOT
ATOM      1  C   UNL     1       1.060   1.753 -22.122  0.00  0.00    +0.162 A 
ATOM      2  C   UNL     1       1.632   2.085 -23.193  0.00  0.00    +0.050 A 
ATOM      3  C   UNL     1       0.989   2.644 -24.102  0.00  0.00    +0.008 A 
ATOM      4  C   UNL     1      -0.225   2.876 -23.955  0.00  0.00    -0.034 A 
ATOM      5  C   UNL     1      -0.813   2.553 -22.897  0.00  0.00    +0.016 A 
ATOM      6  C   UNL     1      -2.027   2.785 -22.749  0.00  0.00    +0.071 C 
ATOM      7  C   UNL     1      -3.401   2.999 -22.472  0.00  0.00    +0.071 C 
ATOM      8  C   UNL     1      -4.151   3.627 -23.479  0.00  0.00    +0.131 C 
ATOM      9  N   UNL     1      -3.478   3.983 -24.659  0.00  0.00    +0.233 N 
ATOM     10  H   UNL     1      -3.525   5.001 -24.695  0.00  0.00    +0.202 HD
ATOM     11  H   UNL     1      -3.939   3.504 -25.434  0.00  0.00    +0.202 HD
ATOM     12  C   UNL     1      -2.097   3.676 -24.729  0.00  0.00    +0.095 C 
ATOM     13  C   UNL     1      -2.670   3.344 -23.659  0.00  0.00    -0.007 C 
ATOM     14  C   UNL     1      -3.899   3.579 -23.510  0.00  0.00    +0.006 C 
ATOM     15  C   UNL     1      -4.472   3.253 -22.454  0.00  0.00    -0.000 C 
ATOM     16  C   UNL     1      -3.829   2.688 -21.530  0.00  0.00    +0.018 C 
ATOM     17  C   UNL     1      -2.614   2.456 -21.677  0.00  0.00    +0.212 C 
ATOM     18  O   UNL     1      -1.358   1.884 -21.079  0.00  0.00    -0.480 OA
ATOM     19  C   UNL     1      -0.882   3.444 -24.877  0.00  0.00    +0.094 C 
ATOM     20  C   UNL     1      -0.170   1.988 -21.974  0.00  0.00    +0.167 A 
ENDROOT
BRANCH   1  22
ATOM     21  C   UNL     1       2.956   1.230 -21.211  0.00  0.00    +0.277 C 
ATOM     22  O   UNL     1       1.710   1.189 -21.206  0.00  0.00    -0.491 OA
ENDBRANCH   1  22
TORSDOF 1
ENDMDL
MODEL 6
REMARK VINA RESULT:    -9.611      2.267      5.456
REMARK INTER + INTRA:         -10.281
REMARK INTER:                 -10.174
REMARK INTRA:                  -0.107
REMARK UNBOUND:                -0.108
REMARK  Name = ZINC000096316328
REMARK  2 active torsions:
REMARK  status: ('A' for Active; 'I' for Inactive)
REMARK    1  A    between atoms: C_1  and  O_2
REMARK    2  A    between atoms: O_2  and  C_3
REMARK                            x       y       z     vdW  Elec       q    Type
REMARK                         _______ _______ _______ _____ _____    ______ ____
ROOT
ATOM      1  C   UNL     1      -3.597   3.276 -22.623  0.00  0.00    +0.162 A 
ATOM      2  C   UNL     1      -3.479   2.658 -21.532  0.00  0.00    +0.050 A 
ATOM      3  C   UNL     1      -2.381   2.172 -21.200  0.00  0.00    +0.008 A 
ATOM      4  C   UNL     1      -1.393   2.297 -21.948  0.00  0.00    -0.034 A 
ATOM      5  C   UNL     1      -1.490   2.908 -23.037  0.00  0.00    +0.016 A 
ATOM      6  C   UNL     1      -0.502   3.032 -23.784  0.00  0.00    +0.071 C 
ATOM      7  C   UNL     1       0.551   3.235 -24.711  0.00  0.00    +0.071 C 
ATOM      8  C   UNL     1       1.801   2.699 -24.363  0.00  0.00    +0.131 C 
ATOM      9  N   UNL     1       1.893   2.017 -23.139  0.00  0.00    +0.233 N 
ATOM     10  H   UNL     1       2.542   2.568 -22.577  0.00  0.00    +0.202 HD
ATOM     11  H   UNL     1       2.201   1.064 -23.339  0.00  0.00    +0.202 HD
ATOM     12  C   UNL     1       0.713   1.930 -22.361  0.00  0.00    +0.095 C 
ATOM     13  C   UNL     1       0.596   2.547 -23.452  0.00  0.00    -0.007 C 
ATOM     14  C   UNL     1       1.596   2.673 -24.208  0.00  0.00    +0.006 C 
ATOM     15  C   UNL     1       1.488   3.282 -25.288  0.00  0.00    -0.000 C 
ATOM     16  C   UNL     1       0.381   3.775 -25.631  0.00  0.00    +0.018 C 
ATOM     17  C   UNL     1      -0.607   3.651 -24.884  0.00  0.00    +0.212 C 
ATOM     18  O   UNL     1      -2.067   3.942 -24.664  0.00  0.00    -0.480 OA
ATOM     19  C   UNL     1      -0.275   1.805 -21.613  0.00  0.00    +0.094 C 
ATOM     20  C   UNL     1      -2.596   3.401 -23.380  0.00  0.00    +0.167 A 
ENDROOT
BRANCH   1  22
ATOM     21  C   UNL     1      -5.752   3.372 -22.404  0.00  0.00    +0.277 C 
ATOM     22  O   UNL     1      -4.706   3.764 -22.956  0.00  0.00    -0.491 OA
ENDBRANCH   1  22
TORSDOF 1
ENDMDL
MODEL 7
REMARK VINA RESULT:    -9.330      2.363      5.187
REMARK INTER + INTRA:          -9.983
REMARK INTER:                  -9.856
REMARK INTRA:                  -0.127
REMARK UNBOUND:                -0.108
REMARK  Name = ZINC000096316328
REMARK  2 active torsions:
REMARK  status: ('A' for Active; 'I' for Inactive)
REMARK    1  A    between atoms: C_1  and  O_2
REMARK    2  A    between atoms: O_2  and  C_3
REMARK                            x       y       z     vdW  Elec       q    Type
REMARK                         _______ _______ _______ _____ _____    ______ ____
ROOT
ATOM      1  C   UNL     1      -3.056   3.646 -24.432  0.00  0.00    +0.162 A 
ATOM      2  C   UNL     1      -3.812   3.400 -23.455  0.00  0.00    +0.050 A 
ATOM      3  C   UNL     1      -3.355   2.871 -22.424  0.00  0.00    +0.008 A 
ATOM      4  C   UNL     1      -2.146   2.582 -22.356  0.00  0.00    -0.034 A 
ATOM      5  C   UNL     1      -1.378   2.818 -23.316  0.00  0.00    +0.016 A 
ATOM      6  C   UNL     1      -0.168   2.530 -23.248  0.00  0.00    +0.071 C 
ATOM      7  C   UNL     1       1.220   2.245 -23.282  0.00  0.00    +0.071 C 
ATOM      8  C   UNL     1       1.763   1.648 -22.134  0.00  0.00    +0.131 C 
ATOM      9  N   UNL     1       0.890   1.389 -21.065  0.00  0.00    +0.233 N 
ATOM     10  H   UNL     1       1.225   1.975 -20.300  0.00  0.00    +0.202 HD
ATOM     11  H   UNL     1       0.917   0.386 -20.881  0.00  0.00    +0.202 HD
ATOM     12  C   UNL     1      -0.467   1.755 -21.241  0.00  0.00    +0.095 C 
ATOM     13  C   UNL     1       0.289   2.000 -22.217  0.00  0.00    -0.007 C 
ATOM     14  C   UNL     1       1.513   1.708 -22.148  0.00  0.00    +0.006 C 
ATOM     15  C   UNL     1       2.266   1.948 -23.109  0.00  0.00    -0.000 C 
ATOM     16  C   UNL     1       1.812   2.482 -24.155  0.00  0.00    +0.018 C 
ATOM     17  C   UNL     1       0.602   2.772 -24.224  0.00  0.00    +0.212 C 
ATOM     18  O   UNL     1      -0.510   3.357 -25.051  0.00  0.00    -0.480 OA
ATOM     19  C   UNL     1      -1.677   2.044 -21.309  0.00  0.00    +0.094 C 
ATOM     20  C   UNL     1      -1.832   3.353 -24.362  0.00  0.00    +0.167 A 
ENDROOT
BRANCH   1  22
ATOM     21  C   UNL     1      -3.657   3.506 -26.510  0.00  0.00    +0.277 C 
ATOM     22  O   UNL     1      -3.520   4.180 -25.471  0.00  0.00    -0.491 OA
ENDBRANCH   1  22
TORSDOF 1
ENDMDL
MODEL 8
REMARK VINA RESULT:    -9.237      2.675      5.845
REMARK INTER + INTRA:          -9.885
REMARK INTER:                  -9.780
REMARK INTRA:                  -0.105
REMARK UNBOUND:                -0.108
REMARK  Name = ZINC000096316328
REMARK  2 active torsions:
REMARK  status: ('A' for Active; 'I' for Inactive)
REMARK    1  A    between atoms: C_1  and  O_2
REMARK    2  A    between atoms: O_2  and  C_3
REMARK                            x       y       z     vdW  Elec       q    Type
REMARK                         _______ _______ _______ _____ _____    ______ ____
ROOT
ATOM      1  C   UNL     1      -1.807   3.285 -23.123  0.00  0.00    +0.162 A 
ATOM      2  C   UNL     1      -1.763   4.491 -23.480  0.00  0.00    +0.050 A 
ATOM      3  C   UNL     1      -0.668   5.079 -23.576  0.00  0.00    +0.008 A 
ATOM      4  C   UNL     1       0.388   4.473 -23.318  0.00  0.00    -0.034 A 
ATOM      5  C   UNL     1       0.366   3.273 -22.962  0.00  0.00    +0.016 A 
ATOM      6  C   UNL     1       1.422   2.667 -22.704  0.00  0.00    +0.071 C 
ATOM      7  C   UNL     1       2.558   1.880 -22.387  0.00  0.00    +0.071 C 
ATOM      8  C   UNL     1       3.806   2.516 -22.486  0.00  0.00    +0.131 C 
ATOM      9  N   UNL     1       3.815   3.861 -22.887  0.00  0.00    +0.233 N 
ATOM     10  H   UNL     1       4.310   3.869 -23.779  0.00  0.00    +0.202 HD
ATOM     11  H   UNL     1       4.261   4.401 -22.144  0.00  0.00    +0.202 HD
ATOM     12  C   UNL     1       2.560   4.461 -23.157  0.00  0.00    +0.095 C 
ATOM     13  C   UNL     1       2.517   3.255 -22.800  0.00  0.00    -0.007 C 
ATOM     14  C   UNL     1       3.587   2.641 -22.540  0.00  0.00    +0.006 C 
ATOM     15  C   UNL     1       3.551   1.448 -22.187  0.00  0.00    -0.000 C 
ATOM     16  C   UNL     1       2.449   0.847 -22.087  0.00  0.00    +0.018 C 
ATOM     17  C   UNL     1       1.391   1.453 -22.345  0.00  0.00    +0.212 C 
ATOM     18  O   UNL     1      -0.109   1.389 -22.435  0.00  0.00    -0.480 OA
ATOM     19  C   UNL     1       1.504   5.067 -23.414  0.00  0.00    +0.094 C 
ATOM     20  C   UNL     1      -0.736   2.672 -22.863  0.00  0.00    +0.167 A 
ENDROOT
BRANCH   1  22
ATOM     21  C   UNL     1      -3.974   3.330 -23.180  0.00  0.00    +0.277 C 
ATOM     22  O   UNL     1      -2.913   2.694 -23.028  0.00  0.00    -0.491 OA
ENDBRANCH   1  22
TORSDOF 1
ENDMDL
MODEL 9
REMARK VINA RESULT:    -8.646      2.911      6.128
REMARK INTER + INTRA:          -9.259
REMARK INTER:                  -9.151
REMARK INTRA:                  -0.108
REMARK UNBOUND:                -0.108
REMARK  Name = ZINC000096316328
REMARK  2 active torsions:
REMARK  status: ('A' for Active; 'I' for Inactive)
REMARK    1  A    between atoms: C_1  and  O_2
REMARK    2  A    between atoms: O_2  and  C_3
REMARK                            x       y       z     vdW  Elec       q    Type
REMARK                         _______ _______ _______ _____ _____    ______ ____
ROOT
ATOM      1  C   UNL     1      -1.347   3.175 -24.048  0.00  0.00    +0.162 A 
ATOM      2  C   UNL     1      -2.096   2.645 -23.186  0.00  0.00    +0.050 A 
ATOM      3  C   UNL     1      -1.606   2.088 -22.185  0.00  0.00    +0.008 A 
ATOM      4  C   UNL     1      -0.371   2.055 -22.033  0.00  0.00    -0.034 A 
ATOM      5  C   UNL     1       0.391   2.576 -22.879  0.00  0.00    +0.016 A 
ATOM      6  C   UNL     1       1.626   2.542 -22.728  0.00  0.00    +0.071 C 
ATOM      7  C   UNL     1       3.042   2.564 -22.659  0.00  0.00    +0.071 C 
ATOM      8  C   UNL     1       3.623   1.944 -21.541  0.00  0.00    +0.131 C 
ATOM      9  N   UNL     1       2.756   1.364 -20.601  0.00  0.00    +0.233 N 
ATOM     10  H   UNL     1       2.899   1.898 -19.744  0.00  0.00    +0.202 HD
ATOM     11  H   UNL     1       2.992   0.373 -20.535  0.00  0.00    +0.202 HD
ATOM     12  C   UNL     1       1.367   1.456 -20.865  0.00  0.00    +0.095 C 
ATOM     13  C   UNL     1       2.116   1.986 -21.726  0.00  0.00    -0.007 C 
ATOM     14  C   UNL     1       3.367   1.951 -21.573  0.00  0.00    +0.006 C 
ATOM     15  C   UNL     1       4.113   2.473 -22.421  0.00  0.00    -0.000 C 
ATOM     16  C   UNL     1       3.626   3.038 -23.435  0.00  0.00    +0.018 C 
ATOM     17  C   UNL     1       2.390   3.072 -23.588  0.00  0.00    +0.212 C 
ATOM     18  O   UNL     1       1.237   3.517 -24.445  0.00  0.00    -0.480 OA
ATOM     19  C   UNL     1       0.132   1.490 -21.017  0.00  0.00    +0.094 C 
ATOM     20  C   UNL     1      -0.096   3.141 -23.894  0.00  0.00    +0.167 A 
ENDROOT
BRANCH   1  22
ATOM     21  C   UNL     1      -3.021   4.143 -25.028  0.00  0.00    +0.277 C 
ATOM     22  O   UNL     1      -1.844   3.736 -25.058  0.00  0.00    -0.491 OA
ENDBRANCH   1  22
TORSDOF 1
ENDMDL
