MODEL 1
REMARK VINA RESULT:    -6.360      0.000      0.000
REMARK INTER + INTRA:          -8.173
REMARK INTER:                  -7.831
REMARK INTRA:                  -0.342
REMARK UNBOUND:                -0.326
REMARK  Name = ZINC000000338210
REMARK  6 active torsions:
REMARK  status: ('A' for Active; 'I' for Inactive)
REMARK    1  A    between atoms: C_1  and  C_2
REMARK    2  A    between atoms: C_2  and  O_3
REMARK    3  A    between atoms: O_3  and  C_4
REMARK    4  A    between atoms: C_4  and  C_6
REMARK    5  A    between atoms: C_8  and  O_9
REMARK    6  A    between atoms: C_11  and  O_12
REMARK                            x       y       z     vdW  Elec       q    Type
REMARK                         _______ _______ _______ _____ _____    ______ ____
ROOT
ATOM      1  C   UNL     1      -1.862   3.336 -21.856  0.00  0.00    +0.066 A 
ATOM      2  C   UNL     1      -1.119   2.275 -21.969  0.00  0.00    +0.060 A 
ATOM      3  C   UNL     1       0.018   2.342 -22.596  0.00  0.00    +0.121 A 
ATOM      4  C   UNL     1       0.412   3.471 -23.108  0.00  0.00    +0.090 A 
ATOM      5  C   UNL     1      -0.332   4.531 -22.994  0.00  0.00    +0.121 A 
ATOM      6  C   UNL     1      -1.469   4.464 -22.368  0.00  0.00    +0.060 A 
ENDROOT
BRANCH   1   7
ATOM      7  C   UNL     1      -3.000   3.268 -21.229  0.00  0.00    +0.339 C 
ATOM      8  O   UNL     1      -3.121   3.789 -20.044  0.00  0.00    -0.245 OA
BRANCH   7   9
ATOM      9  O   UNL     1      -4.016   2.680 -21.788  0.00  0.00    -0.461 OA
BRANCH   9  11
ATOM     10  C   UNL     1      -5.275   3.741 -23.324  0.00  0.00    +0.048 C 
ATOM     11  C   UNL     1      -5.076   3.366 -22.094  0.00  0.00    +0.229 C 
ENDBRANCH   9  11
ENDBRANCH   7   9
ENDBRANCH   1   7
BRANCH   5  12
ATOM     12  O   UNL     1       0.063   5.659 -23.507  0.00  0.00    -0.507 OA
ATOM     13  H   UNL     1       0.171   6.410 -22.959  0.00  0.00    +0.292 HD
ENDBRANCH   5  12
BRANCH   3  14
ATOM     14  O   UNL     1       0.761   1.282 -22.710  0.00  0.00    -0.507 OA
ATOM     15  H   UNL     1       1.536   1.197 -22.191  0.00  0.00    +0.292 HD
ENDBRANCH   3  14
TORSDOF 5
ENDMDL
MODEL 2
REMARK VINA RESULT:    -6.354      0.055      2.164
REMARK INTER + INTRA:          -8.166
REMARK INTER:                  -7.823
REMARK INTRA:                  -0.343
REMARK UNBOUND:                -0.326
REMARK  Name = ZINC000000338210
REMARK  6 active torsions:
REMARK  status: ('A' for Active; 'I' for Inactive)
REMARK    1  A    between atoms: C_1  and  C_2
REMARK    2  A    between atoms: C_2  and  O_3
REMARK    3  A    between atoms: O_3  and  C_4
REMARK    4  A    between atoms: C_4  and  C_6
REMARK    5  A    between atoms: C_8  and  O_9
REMARK    6  A    between atoms: C_11  and  O_12
REMARK                            x       y       z     vdW  Elec       q    Type
REMARK                         _______ _______ _______ _____ _____    ______ ____
ROOT
ATOM      1  C   UNL     1      -1.811   3.326 -21.872  0.00  0.00    +0.066 A 
ATOM      2  C   UNL     1      -1.412   4.456 -22.375  0.00  0.00    +0.060 A 
ATOM      3  C   UNL     1      -0.274   4.524 -22.998  0.00  0.00    +0.121 A 
ATOM      4  C   UNL     1       0.466   3.462 -23.119  0.00  0.00    +0.090 A 
ATOM      5  C   UNL     1       0.067   2.332 -22.616  0.00  0.00    +0.121 A 
ATOM      6  C   UNL     1      -1.072   2.263 -21.993  0.00  0.00    +0.060 A 
ENDROOT
BRANCH   1   7
ATOM      7  C   UNL     1      -2.950   3.258 -21.248  0.00  0.00    +0.339 C 
ATOM      8  O   UNL     1      -3.074   3.781 -20.065  0.00  0.00    -0.245 OA
BRANCH   7   9
ATOM      9  O   UNL     1      -3.964   2.667 -21.808  0.00  0.00    -0.461 OA
BRANCH   9  11
ATOM     10  C   UNL     1      -5.232   3.734 -23.332  0.00  0.00    +0.048 C 
ATOM     11  C   UNL     1      -5.029   3.349 -22.107  0.00  0.00    +0.229 C 
ENDBRANCH   9  11
ENDBRANCH   7   9
ENDBRANCH   1   7
BRANCH   5  12
ATOM     12  O   UNL     1       0.807   1.269 -22.737  0.00  0.00    -0.507 OA
ATOM     13  H   UNL     1       1.044   0.958 -23.588  0.00  0.00    +0.292 HD
ENDBRANCH   5  12
BRANCH   3  14
ATOM     14  O   UNL     1       0.126   5.655 -23.501  0.00  0.00    -0.507 OA
ATOM     15  H   UNL     1      -0.364   6.060 -24.188  0.00  0.00    +0.292 HD
ENDBRANCH   3  14
TORSDOF 5
ENDMDL
MODEL 3
REMARK VINA RESULT:    -6.253      1.959      4.504
REMARK INTER + INTRA:          -8.041
REMARK INTER:                  -7.707
REMARK INTRA:                  -0.335
REMARK UNBOUND:                -0.326
REMARK  Name = ZINC000000338210
REMARK  6 active torsions:
REMARK  status: ('A' for Active; 'I' for Inactive)
REMARK    1  A    between atoms: C_1  and  C_2
REMARK    2  A    between atoms: C_2  and  O_3
REMARK    3  A    between atoms: O_3  and  C_4
REMARK    4  A    between atoms: C_4  and  C_6
REMARK    5  A    between atoms: C_8  and  O_9
REMARK    6  A    between atoms: C_11  and  O_12
REMARK                            x       y       z     vdW  Elec       q    Type
REMARK                         _______ _______ _______ _____ _____    ______ ____
ROOT
ATOM      1  C   UNL     1      -2.702   3.782 -23.352  0.00  0.00    +0.066 A 
ATOM      2  C   UNL     1      -3.573   3.414 -22.460  0.00  0.00    +0.060 A 
ATOM      3  C   UNL     1      -4.843   3.454 -22.736  0.00  0.00    +0.121 A 
ATOM      4  C   UNL     1      -5.242   3.861 -23.905  0.00  0.00    +0.090 A 
ATOM      5  C   UNL     1      -4.370   4.229 -24.797  0.00  0.00    +0.121 A 
ATOM      6  C   UNL     1      -3.101   4.190 -24.520  0.00  0.00    +0.060 A 
ENDROOT
BRANCH   1   7
ATOM      7  C   UNL     1      -1.432   3.743 -23.075  0.00  0.00    +0.339 C 
ATOM      8  O   UNL     1      -0.855   4.771 -22.529  0.00  0.00    -0.245 OA
BRANCH   7   9
ATOM      9  O   UNL     1      -0.741   2.676 -23.345  0.00  0.00    -0.461 OA
BRANCH   9  11
ATOM     10  C   UNL     1      -0.391   1.427 -21.504  0.00  0.00    +0.048 C 
ATOM     11  C   UNL     1       0.069   2.184 -22.456  0.00  0.00    +0.229 C 
ENDBRANCH   9  11
ENDBRANCH   7   9
ENDBRANCH   1   7
BRANCH   5  12
ATOM     12  O   UNL     1      -4.769   4.637 -25.966  0.00  0.00    -0.507 OA
ATOM     13  H   UNL     1      -5.556   4.293 -26.338  0.00  0.00    +0.292 HD
ENDBRANCH   5  12
BRANCH   3  14
ATOM     14  O   UNL     1      -5.714   3.086 -21.844  0.00  0.00    -0.507 OA
ATOM     15  H   UNL     1      -6.478   2.611 -22.106  0.00  0.00    +0.292 HD
ENDBRANCH   3  14
TORSDOF 5
ENDMDL
MODEL 4
REMARK VINA RESULT:    -6.251      1.912      4.739
REMARK INTER + INTRA:          -8.039
REMARK INTER:                  -7.704
REMARK INTRA:                  -0.335
REMARK UNBOUND:                -0.326
REMARK  Name = ZINC000000338210
REMARK  6 active torsions:
REMARK  status: ('A' for Active; 'I' for Inactive)
REMARK    1  A    between atoms: C_1  and  C_2
REMARK    2  A    between atoms: C_2  and  O_3
REMARK    3  A    between atoms: O_3  and  C_4
REMARK    4  A    between atoms: C_4  and  C_6
REMARK    5  A    between atoms: C_8  and  O_9
REMARK    6  A    between atoms: C_11  and  O_12
REMARK                            x       y       z     vdW  Elec       q    Type
REMARK                         _______ _______ _______ _____ _____    ______ ____
ROOT
ATOM      1  C   UNL     1      -2.720   3.757 -23.277  0.00  0.00    +0.066 A 
ATOM      2  C   UNL     1      -3.140   4.149 -24.443  0.00  0.00    +0.060 A 
ATOM      3  C   UNL     1      -4.414   4.170 -24.701  0.00  0.00    +0.121 A 
ATOM      4  C   UNL     1      -5.268   3.798 -23.793  0.00  0.00    +0.090 A 
ATOM      5  C   UNL     1      -4.846   3.406 -22.627  0.00  0.00    +0.121 A 
ATOM      6  C   UNL     1      -3.573   3.385 -22.369  0.00  0.00    +0.060 A 
ENDROOT
BRANCH   1   7
ATOM      7  C   UNL     1      -1.445   3.736 -23.020  0.00  0.00    +0.339 C 
ATOM      8  O   UNL     1      -0.870   4.781 -22.503  0.00  0.00    -0.245 OA
BRANCH   7   9
ATOM      9  O   UNL     1      -0.747   2.671 -23.279  0.00  0.00    -0.461 OA
BRANCH   9  11
ATOM     10  C   UNL     1      -0.325   1.452 -21.433  0.00  0.00    +0.048 C 
ATOM     11  C   UNL     1       0.094   2.215 -22.399  0.00  0.00    +0.229 C 
ENDBRANCH   9  11
ENDBRANCH   7   9
ENDBRANCH   1   7
BRANCH   5  12
ATOM     12  O   UNL     1      -5.700   3.035 -21.719  0.00  0.00    -0.507 OA
ATOM     13  H   UNL     1      -6.264   3.667 -21.320  0.00  0.00    +0.292 HD
ENDBRANCH   5  12
BRANCH   3  14
ATOM     14  O   UNL     1      -4.836   4.562 -25.867  0.00  0.00    -0.507 OA
ATOM     15  H   UNL     1      -4.575   5.396 -26.202  0.00  0.00    +0.292 HD
ENDBRANCH   3  14
TORSDOF 5
ENDMDL
MODEL 5
REMARK VINA RESULT:    -6.199      2.203      2.687
REMARK INTER + INTRA:          -7.974
REMARK INTER:                  -7.744
REMARK INTRA:                  -0.230
REMARK UNBOUND:                -0.326
REMARK  Name = ZINC000000338210
REMARK  6 active torsions:
REMARK  status: ('A' for Active; 'I' for Inactive)
REMARK    1  A    between atoms: C_1  and  C_2
REMARK    2  A    between atoms: C_2  and  O_3
REMARK    3  A    between atoms: O_3  and  C_4
REMARK    4  A    between atoms: C_4  and  C_6
REMARK    5  A    between atoms: C_8  and  O_9
REMARK    6  A    between atoms: C_11  and  O_12
REMARK                            x       y       z     vdW  Elec       q    Type
REMARK                         _______ _______ _______ _____ _____    ______ ____
ROOT
ATOM      1  C   UNL     1      -1.165   4.172 -24.242  0.00  0.00    +0.066 A 
ATOM      2  C   UNL     1      -0.629   3.390 -25.132  0.00  0.00    +0.060 A 
ATOM      3  C   UNL     1       0.653   3.423 -25.339  0.00  0.00    +0.121 A 
ATOM      4  C   UNL     1       1.401   4.238 -24.655  0.00  0.00    +0.090 A 
ATOM      5  C   UNL     1       0.865   5.020 -23.765  0.00  0.00    +0.121 A 
ATOM      6  C   UNL     1      -0.417   4.987 -23.558  0.00  0.00    +0.060 A 
ENDROOT
BRANCH   1   7
ATOM      7  C   UNL     1      -2.448   4.139 -24.036  0.00  0.00    +0.339 C 
ATOM      8  O   UNL     1      -3.244   4.849 -24.779  0.00  0.00    -0.245 OA
BRANCH   7   9
ATOM      9  O   UNL     1      -2.935   3.395 -23.087  0.00  0.00    -0.461 OA
BRANCH   9  11
ATOM     10  C   UNL     1      -4.712   3.387 -21.704  0.00  0.00    +0.048 C 
ATOM     11  C   UNL     1      -4.220   3.331 -22.907  0.00  0.00    +0.229 C 
ENDBRANCH   9  11
ENDBRANCH   7   9
ENDBRANCH   1   7
BRANCH   5  12
ATOM     12  O   UNL     1       1.614   5.835 -23.081  0.00  0.00    -0.507 OA
ATOM     13  H   UNL     1       1.335   6.716 -22.937  0.00  0.00    +0.292 HD
ENDBRANCH   5  12
BRANCH   3  14
ATOM     14  O   UNL     1       1.189   2.642 -26.229  0.00  0.00    -0.507 OA
ATOM     15  H   UNL     1       0.781   1.826 -26.441  0.00  0.00    +0.292 HD
ENDBRANCH   3  14
TORSDOF 5
ENDMDL
MODEL 6
REMARK VINA RESULT:    -6.136      2.033      3.164
REMARK INTER + INTRA:          -7.897
REMARK INTER:                  -7.653
REMARK INTRA:                  -0.245
REMARK UNBOUND:                -0.326
REMARK  Name = ZINC000000338210
REMARK  6 active torsions:
REMARK  status: ('A' for Active; 'I' for Inactive)
REMARK    1  A    between atoms: C_1  and  C_2
REMARK    2  A    between atoms: C_2  and  O_3
REMARK    3  A    between atoms: O_3  and  C_4
REMARK    4  A    between atoms: C_4  and  C_6
REMARK    5  A    between atoms: C_8  and  O_9
REMARK    6  A    between atoms: C_11  and  O_12
REMARK                            x       y       z     vdW  Elec       q    Type
REMARK                         _______ _______ _______ _____ _____    ______ ____
ROOT
ATOM      1  C   UNL     1      -0.827   3.981 -23.722  0.00  0.00    +0.066 A 
ATOM      2  C   UNL     1      -0.034   4.899 -23.253  0.00  0.00    +0.060 A 
ATOM      3  C   UNL     1       1.142   5.072 -23.779  0.00  0.00    +0.121 A 
ATOM      4  C   UNL     1       1.525   4.329 -24.775  0.00  0.00    +0.090 A 
ATOM      5  C   UNL     1       0.731   3.412 -25.244  0.00  0.00    +0.121 A 
ATOM      6  C   UNL     1      -0.444   3.238 -24.717  0.00  0.00    +0.060 A 
ENDROOT
BRANCH   1   7
ATOM      7  C   UNL     1      -2.003   3.808 -23.195  0.00  0.00    +0.339 C 
ATOM      8  O   UNL     1      -3.070   4.072 -23.888  0.00  0.00    -0.245 OA
BRANCH   7   9
ATOM      9  O   UNL     1      -2.110   3.371 -21.975  0.00  0.00    -0.461 OA
BRANCH   9  11
ATOM     10  C   UNL     1      -3.163   3.729 -20.017  0.00  0.00    +0.048 C 
ATOM     11  C   UNL     1      -3.207   3.572 -21.307  0.00  0.00    +0.229 C 
ENDBRANCH   9  11
ENDBRANCH   7   9
ENDBRANCH   1   7
BRANCH   5  12
ATOM     12  O   UNL     1       1.114   2.668 -26.240  0.00  0.00    -0.507 OA
ATOM     13  H   UNL     1       1.997   2.361 -26.282  0.00  0.00    +0.292 HD
ENDBRANCH   5  12
BRANCH   3  14
ATOM     14  O   UNL     1       1.936   5.989 -23.311  0.00  0.00    -0.507 OA
ATOM     15  H   UNL     1       2.853   5.954 -23.498  0.00  0.00    +0.292 HD
ENDBRANCH   3  14
TORSDOF 5
ENDMDL
MODEL 7
REMARK VINA RESULT:    -5.960      1.436      4.426
REMARK INTER + INTRA:          -7.679
REMARK INTER:                  -7.388
REMARK INTRA:                  -0.292
REMARK UNBOUND:                -0.326
REMARK  Name = ZINC000000338210
REMARK  6 active torsions:
REMARK  status: ('A' for Active; 'I' for Inactive)
REMARK    1  A    between atoms: C_1  and  C_2
REMARK    2  A    between atoms: C_2  and  O_3
REMARK    3  A    between atoms: O_3  and  C_4
REMARK    4  A    between atoms: C_4  and  C_6
REMARK    5  A    between atoms: C_8  and  O_9
REMARK    6  A    between atoms: C_11  and  O_12
REMARK                            x       y       z     vdW  Elec       q    Type
REMARK                         _______ _______ _______ _____ _____    ______ ____
ROOT
ATOM      1  C   UNL     1      -1.944   2.714 -22.447  0.00  0.00    +0.066 A 
ATOM      2  C   UNL     1      -2.020   3.024 -21.187  0.00  0.00    +0.060 A 
ATOM      3  C   UNL     1      -3.125   3.508 -20.703  0.00  0.00    +0.121 A 
ATOM      4  C   UNL     1      -4.154   3.682 -21.480  0.00  0.00    +0.090 A 
ATOM      5  C   UNL     1      -4.077   3.371 -22.740  0.00  0.00    +0.121 A 
ATOM      6  C   UNL     1      -2.972   2.887 -23.224  0.00  0.00    +0.060 A 
ENDROOT
BRANCH   1   7
ATOM      7  C   UNL     1      -0.838   2.230 -22.931  0.00  0.00    +0.339 C 
ATOM      8  O   UNL     1      -0.386   1.088 -22.504  0.00  0.00    -0.245 OA
BRANCH   7   9
ATOM      9  O   UNL     1      -0.184   2.888 -23.842  0.00  0.00    -0.461 OA
BRANCH   9  11
ATOM     10  C   UNL     1       1.163   4.657 -24.198  0.00  0.00    +0.048 C 
ATOM     11  C   UNL     1       0.855   3.595 -23.513  0.00  0.00    +0.229 C 
ENDBRANCH   9  11
ENDBRANCH   7   9
ENDBRANCH   1   7
BRANCH   5  12
ATOM     12  O   UNL     1      -5.106   3.544 -23.516  0.00  0.00    -0.507 OA
ATOM     13  H   UNL     1      -5.389   2.853 -24.079  0.00  0.00    +0.292 HD
ENDBRANCH   5  12
BRANCH   3  14
ATOM     14  O   UNL     1      -3.202   3.819 -19.444  0.00  0.00    -0.507 OA
ATOM     15  H   UNL     1      -2.897   3.217 -18.794  0.00  0.00    +0.292 HD
ENDBRANCH   3  14
TORSDOF 5
ENDMDL
MODEL 8
REMARK VINA RESULT:    -5.796      4.412      6.419
REMARK INTER + INTRA:          -7.477
REMARK INTER:                  -7.143
REMARK INTRA:                  -0.335
REMARK UNBOUND:                -0.326
REMARK  Name = ZINC000000338210
REMARK  6 active torsions:
REMARK  status: ('A' for Active; 'I' for Inactive)
REMARK    1  A    between atoms: C_1  and  C_2
REMARK    2  A    between atoms: C_2  and  O_3
REMARK    3  A    between atoms: O_3  and  C_4
REMARK    4  A    between atoms: C_4  and  C_6
REMARK    5  A    between atoms: C_8  and  O_9
REMARK    6  A    between atoms: C_11  and  O_12
REMARK                            x       y       z     vdW  Elec       q    Type
REMARK                         _______ _______ _______ _____ _____    ______ ____
ROOT
ATOM      1  C   UNL     1       3.119   3.289 -23.547  0.00  0.00    +0.066 A 
ATOM      2  C   UNL     1       2.351   4.297 -23.253  0.00  0.00    +0.060 A 
ATOM      3  C   UNL     1       1.335   4.581 -24.011  0.00  0.00    +0.121 A 
ATOM      4  C   UNL     1       1.085   3.859 -25.064  0.00  0.00    +0.090 A 
ATOM      5  C   UNL     1       1.853   2.852 -25.357  0.00  0.00    +0.121 A 
ATOM      6  C   UNL     1       2.870   2.567 -24.599  0.00  0.00    +0.060 A 
ENDROOT
BRANCH   1   7
ATOM      7  C   UNL     1       4.136   3.005 -22.789  0.00  0.00    +0.339 C 
ATOM      8  O   UNL     1       5.344   3.098 -23.260  0.00  0.00    -0.245 OA
BRANCH   7   9
ATOM      9  O   UNL     1       3.944   2.626 -21.560  0.00  0.00    -0.461 OA
BRANCH   9  11
ATOM     10  C   UNL     1       3.789   0.452 -20.994  0.00  0.00    +0.048 C 
ATOM     11  C   UNL     1       4.498   1.535 -21.123  0.00  0.00    +0.229 C 
ENDBRANCH   9  11
ENDBRANCH   7   9
ENDBRANCH   1   7
BRANCH   5  12
ATOM     12  O   UNL     1       1.604   2.130 -26.409  0.00  0.00    -0.507 OA
ATOM     13  H   UNL     1       1.918   2.400 -27.248  0.00  0.00    +0.292 HD
ENDBRANCH   5  12
BRANCH   3  14
ATOM     14  O   UNL     1       0.567   5.588 -23.718  0.00  0.00    -0.507 OA
ATOM     15  H   UNL     1      -0.314   5.614 -24.038  0.00  0.00    +0.292 HD
ENDBRANCH   3  14
TORSDOF 5
ENDMDL
MODEL 9
REMARK VINA RESULT:    -5.618      2.238      3.516
REMARK INTER + INTRA:          -7.257
REMARK INTER:                  -6.931
REMARK INTRA:                  -0.326
REMARK UNBOUND:                -0.326
REMARK  Name = ZINC000000338210
REMARK  6 active torsions:
REMARK  status: ('A' for Active; 'I' for Inactive)
REMARK    1  A    between atoms: C_1  and  C_2
REMARK    2  A    between atoms: C_2  and  O_3
REMARK    3  A    between atoms: O_3  and  C_4
REMARK    4  A    between atoms: C_4  and  C_6
REMARK    5  A    between atoms: C_8  and  O_9
REMARK    6  A    between atoms: C_11  and  O_12
REMARK                            x       y       z     vdW  Elec       q    Type
REMARK                         _______ _______ _______ _____ _____    ______ ____
ROOT
ATOM      1  C   UNL     1       0.284   2.120 -22.377  0.00  0.00    +0.066 A 
ATOM      2  C   UNL     1       1.028   2.755 -23.235  0.00  0.00    +0.060 A 
ATOM      3  C   UNL     1       2.317   2.788 -23.077  0.00  0.00    +0.121 A 
ATOM      4  C   UNL     1       2.864   2.187 -22.061  0.00  0.00    +0.090 A 
ATOM      5  C   UNL     1       2.119   1.553 -21.204  0.00  0.00    +0.121 A 
ATOM      6  C   UNL     1       0.830   1.519 -21.362  0.00  0.00    +0.060 A 
ENDROOT
BRANCH   1   7
ATOM      7  C   UNL     1      -1.006   2.088 -22.536  0.00  0.00    +0.339 C 
ATOM      8  O   UNL     1      -1.519   2.223 -23.723  0.00  0.00    -0.245 OA
BRANCH   7   9
ATOM      9  O   UNL     1      -1.783   1.919 -21.507  0.00  0.00    -0.461 OA
BRANCH   9  11
ATOM     10  C   UNL     1      -2.984   3.657 -20.729  0.00  0.00    +0.048 C 
ATOM     11  C   UNL     1      -2.908   2.565 -21.430  0.00  0.00    +0.229 C 
ENDBRANCH   9  11
ENDBRANCH   7   9
ENDBRANCH   1   7
BRANCH   5  12
ATOM     12  O   UNL     1       2.666   0.951 -20.189  0.00  0.00    -0.507 OA
ATOM     13  H   UNL     1       3.527   1.192 -19.910  0.00  0.00    +0.292 HD
ENDBRANCH   5  12
BRANCH   3  14
ATOM     14  O   UNL     1       3.061   3.422 -23.933  0.00  0.00    -0.507 OA
ATOM     15  H   UNL     1       3.754   2.972 -24.374  0.00  0.00    +0.292 HD
ENDBRANCH   3  14
TORSDOF 5
ENDMDL
