MODEL 1
REMARK VINA RESULT:    -6.558      0.000      0.000
REMARK INTER + INTRA:          -7.709
REMARK INTER:                  -7.335
REMARK INTRA:                  -0.374
REMARK UNBOUND:                -0.385
REMARK  Name = ZINC000000038028
REMARK  4 active torsions:
REMARK  status: ('A' for Active; 'I' for Inactive)
REMARK    1  A    between atoms: C_1  and  C_2
REMARK    2  A    between atoms: C_2  and  C_4
REMARK    3  A    between atoms: C_7  and  O_8
REMARK    4  A    between atoms: C_10  and  O_11
REMARK                            x       y       z     vdW  Elec       q    Type
REMARK                         _______ _______ _______ _____ _____    ______ ____
ROOT
ATOM      1  C   UNL     1      -3.975   3.397 -22.349  0.00  0.00    +0.059 A 
ATOM      2  C   UNL     1      -2.922   3.544 -23.099  0.00  0.00    +0.018 A 
ATOM      3  C   UNL     1      -3.054   3.900 -24.342  0.00  0.00    +0.046 A 
ATOM      4  C   UNL     1      -4.238   4.109 -24.836  0.00  0.00    +0.120 A 
ATOM      5  C   UNL     1      -5.290   3.962 -24.087  0.00  0.00    +0.091 A 
ATOM      6  C   UNL     1      -5.159   3.606 -22.844  0.00  0.00    +0.131 A 
ENDROOT
BRANCH   1   8
ATOM      7  C   UNL     1      -3.145   3.774 -20.291  0.00  0.00    +0.092 C 
ATOM      8  C   UNL     1      -3.843   3.040 -21.107  0.00  0.00    +0.164 C 
ATOM      9  O   UNL     1      -4.408   1.951 -20.680  0.00  0.00    -0.292 OA
ENDBRANCH   1   8
BRANCH   4  10
ATOM     10  O   UNL     1      -4.370   4.465 -26.079  0.00  0.00    -0.507 OA
ATOM     11  H   UNL     1      -3.611   4.580 -26.616  0.00  0.00    +0.292 HD
ENDBRANCH   4  10
BRANCH   6  12
ATOM     12  O   UNL     1      -6.211   3.459 -22.095  0.00  0.00    -0.506 OA
ATOM     13  H   UNL     1      -6.356   4.038 -21.372  0.00  0.00    +0.292 HD
ENDBRANCH   6  12
TORSDOF 3
ENDMDL
MODEL 2
REMARK VINA RESULT:    -6.168      1.548      2.199
REMARK INTER + INTRA:          -7.274
REMARK INTER:                  -6.891
REMARK INTRA:                  -0.383
REMARK UNBOUND:                -0.385
REMARK  Name = ZINC000000038028
REMARK  4 active torsions:
REMARK  status: ('A' for Active; 'I' for Inactive)
REMARK    1  A    between atoms: C_1  and  C_2
REMARK    2  A    between atoms: C_2  and  C_4
REMARK    3  A    between atoms: C_7  and  O_8
REMARK    4  A    between atoms: C_10  and  O_11
REMARK                            x       y       z     vdW  Elec       q    Type
REMARK                         _______ _______ _______ _____ _____    ______ ____
ROOT
ATOM      1  C   UNL     1      -3.377   3.412 -22.460  0.00  0.00    +0.059 A 
ATOM      2  C   UNL     1      -4.665   3.414 -22.642  0.00  0.00    +0.018 A 
ATOM      3  C   UNL     1      -5.161   3.823 -23.772  0.00  0.00    +0.046 A 
ATOM      4  C   UNL     1      -4.370   4.230 -24.720  0.00  0.00    +0.120 A 
ATOM      5  C   UNL     1      -3.083   4.228 -24.539  0.00  0.00    +0.091 A 
ATOM      6  C   UNL     1      -2.586   3.819 -23.409  0.00  0.00    +0.131 A 
ENDROOT
BRANCH   1   8
ATOM      7  C   UNL     1      -3.167   3.631 -20.229  0.00  0.00    +0.092 C 
ATOM      8  C   UNL     1      -2.880   3.003 -21.331  0.00  0.00    +0.164 C 
ATOM      9  O   UNL     1      -2.097   1.966 -21.303  0.00  0.00    -0.292 OA
ENDBRANCH   1   8
BRANCH   4  10
ATOM     10  O   UNL     1      -4.866   4.639 -25.849  0.00  0.00    -0.507 OA
ATOM     11  H   UNL     1      -5.349   5.441 -25.886  0.00  0.00    +0.292 HD
ENDBRANCH   4  10
BRANCH   6  12
ATOM     12  O   UNL     1      -1.299   3.817 -23.227  0.00  0.00    -0.506 OA
ATOM     13  H   UNL     1      -0.928   3.351 -22.504  0.00  0.00    +0.292 HD
ENDBRANCH   6  12
TORSDOF 3
ENDMDL
MODEL 3
REMARK VINA RESULT:    -5.965      1.223      3.735
REMARK INTER + INTRA:          -7.048
REMARK INTER:                  -6.662
REMARK INTRA:                  -0.386
REMARK UNBOUND:                -0.385
REMARK  Name = ZINC000000038028
REMARK  4 active torsions:
REMARK  status: ('A' for Active; 'I' for Inactive)
REMARK    1  A    between atoms: C_1  and  C_2
REMARK    2  A    between atoms: C_2  and  C_4
REMARK    3  A    between atoms: C_7  and  O_8
REMARK    4  A    between atoms: C_10  and  O_11
REMARK                            x       y       z     vdW  Elec       q    Type
REMARK                         _______ _______ _______ _____ _____    ______ ____
ROOT
ATOM      1  C   UNL     1      -3.513   3.864 -23.495  0.00  0.00    +0.059 A 
ATOM      2  C   UNL     1      -2.339   3.903 -22.937  0.00  0.00    +0.018 A 
ATOM      3  C   UNL     1      -2.232   3.845 -21.643  0.00  0.00    +0.046 A 
ATOM      4  C   UNL     1      -3.299   3.747 -20.906  0.00  0.00    +0.120 A 
ATOM      5  C   UNL     1      -4.473   3.708 -21.464  0.00  0.00    +0.091 A 
ATOM      6  C   UNL     1      -4.580   3.766 -22.758  0.00  0.00    +0.131 A 
ENDROOT
BRANCH   1   8
ATOM      7  C   UNL     1      -3.158   2.954 -25.523  0.00  0.00    +0.092 C 
ATOM      8  C   UNL     1      -3.620   3.922 -24.789  0.00  0.00    +0.164 C 
ATOM      9  O   UNL     1      -4.189   4.948 -25.348  0.00  0.00    -0.292 OA
ENDBRANCH   1   8
BRANCH   4  10
ATOM     10  O   UNL     1      -3.192   3.689 -19.612  0.00  0.00    -0.507 OA
ATOM     11  H   UNL     1      -3.902   3.359 -19.098  0.00  0.00    +0.292 HD
ENDBRANCH   4  10
BRANCH   6  12
ATOM     12  O   UNL     1      -5.754   3.727 -23.316  0.00  0.00    -0.506 OA
ATOM     13  H   UNL     1      -5.934   3.096 -23.984  0.00  0.00    +0.292 HD
ENDBRANCH   6  12
TORSDOF 3
ENDMDL
MODEL 4
REMARK VINA RESULT:    -5.952      2.534      3.522
REMARK INTER + INTRA:          -7.033
REMARK INTER:                  -6.648
REMARK INTRA:                  -0.384
REMARK UNBOUND:                -0.385
REMARK  Name = ZINC000000038028
REMARK  4 active torsions:
REMARK  status: ('A' for Active; 'I' for Inactive)
REMARK    1  A    between atoms: C_1  and  C_2
REMARK    2  A    between atoms: C_2  and  C_4
REMARK    3  A    between atoms: C_7  and  O_8
REMARK    4  A    between atoms: C_10  and  O_11
REMARK                            x       y       z     vdW  Elec       q    Type
REMARK                         _______ _______ _______ _____ _____    ______ ____
ROOT
ATOM      1  C   UNL     1      -1.852   2.793 -22.092  0.00  0.00    +0.059 A 
ATOM      2  C   UNL     1      -2.460   3.178 -21.008  0.00  0.00    +0.018 A 
ATOM      3  C   UNL     1      -3.716   3.509 -21.050  0.00  0.00    +0.046 A 
ATOM      4  C   UNL     1      -4.366   3.454 -22.175  0.00  0.00    +0.120 A 
ATOM      5  C   UNL     1      -3.759   3.068 -23.258  0.00  0.00    +0.091 A 
ATOM      6  C   UNL     1      -2.502   2.738 -23.216  0.00  0.00    +0.131 A 
ENDROOT
BRANCH   1   8
ATOM      7  C   UNL     1      -0.214   1.449 -21.330  0.00  0.00    +0.092 C 
ATOM      8  C   UNL     1      -0.596   2.462 -22.050  0.00  0.00    +0.164 C 
ATOM      9  O   UNL     1       0.278   3.144 -22.728  0.00  0.00    -0.292 OA
ENDBRANCH   1   8
BRANCH   4  10
ATOM     10  O   UNL     1      -5.622   3.784 -22.217  0.00  0.00    -0.507 OA
ATOM     11  H   UNL     1      -6.281   3.119 -22.228  0.00  0.00    +0.292 HD
ENDBRANCH   4  10
BRANCH   6  12
ATOM     12  O   UNL     1      -1.895   2.352 -24.299  0.00  0.00    -0.506 OA
ATOM     13  H   UNL     1      -2.385   2.211 -25.086  0.00  0.00    +0.292 HD
ENDBRANCH   6  12
TORSDOF 3
ENDMDL
MODEL 5
REMARK VINA RESULT:    -5.887      2.317      2.858
REMARK INTER + INTRA:          -6.960
REMARK INTER:                  -6.577
REMARK INTRA:                  -0.383
REMARK UNBOUND:                -0.385
REMARK  Name = ZINC000000038028
REMARK  4 active torsions:
REMARK  status: ('A' for Active; 'I' for Inactive)
REMARK    1  A    between atoms: C_1  and  C_2
REMARK    2  A    between atoms: C_2  and  C_4
REMARK    3  A    between atoms: C_7  and  O_8
REMARK    4  A    between atoms: C_10  and  O_11
REMARK                            x       y       z     vdW  Elec       q    Type
REMARK                         _______ _______ _______ _____ _____    ______ ____
ROOT
ATOM      1  C   UNL     1      -2.563   2.735 -21.803  0.00  0.00    +0.059 A 
ATOM      2  C   UNL     1      -1.372   2.305 -21.508  0.00  0.00    +0.018 A 
ATOM      3  C   UNL     1      -0.484   2.156 -22.446  0.00  0.00    +0.046 A 
ATOM      4  C   UNL     1      -0.787   2.437 -23.678  0.00  0.00    +0.120 A 
ATOM      5  C   UNL     1      -1.977   2.867 -23.974  0.00  0.00    +0.091 A 
ATOM      6  C   UNL     1      -2.866   3.016 -23.036  0.00  0.00    +0.131 A 
ENDROOT
BRANCH   1   8
ATOM      7  C   UNL     1      -3.245   3.735 -19.905  0.00  0.00    +0.092 C 
ATOM      8  C   UNL     1      -3.451   2.884 -20.866  0.00  0.00    +0.164 C 
ATOM      9  O   UNL     1      -4.545   2.182 -20.890  0.00  0.00    -0.292 OA
ENDBRANCH   1   8
BRANCH   4  10
ATOM     10  O   UNL     1       0.101   2.288 -24.616  0.00  0.00    -0.507 OA
ATOM     11  H   UNL     1       0.477   1.445 -24.775  0.00  0.00    +0.292 HD
ENDBRANCH   4  10
BRANCH   6  12
ATOM     12  O   UNL     1      -4.057   3.446 -23.332  0.00  0.00    -0.506 OA
ATOM     13  H   UNL     1      -4.206   3.892 -24.142  0.00  0.00    +0.292 HD
ENDBRANCH   6  12
TORSDOF 3
ENDMDL
MODEL 6
REMARK VINA RESULT:    -5.832      2.568      3.591
REMARK INTER + INTRA:          -6.899
REMARK INTER:                  -6.517
REMARK INTRA:                  -0.382
REMARK UNBOUND:                -0.385
REMARK  Name = ZINC000000038028
REMARK  4 active torsions:
REMARK  status: ('A' for Active; 'I' for Inactive)
REMARK    1  A    between atoms: C_1  and  C_2
REMARK    2  A    between atoms: C_2  and  C_4
REMARK    3  A    between atoms: C_7  and  O_8
REMARK    4  A    between atoms: C_10  and  O_11
REMARK                            x       y       z     vdW  Elec       q    Type
REMARK                         _______ _______ _______ _____ _____    ______ ____
ROOT
ATOM      1  C   UNL     1      -1.953   3.764 -24.128  0.00  0.00    +0.059 A 
ATOM      2  C   UNL     1      -3.121   3.884 -23.570  0.00  0.00    +0.018 A 
ATOM      3  C   UNL     1      -4.199   3.687 -24.268  0.00  0.00    +0.046 A 
ATOM      4  C   UNL     1      -4.110   3.369 -25.526  0.00  0.00    +0.120 A 
ATOM      5  C   UNL     1      -2.943   3.248 -26.084  0.00  0.00    +0.091 A 
ATOM      6  C   UNL     1      -1.864   3.446 -25.386  0.00  0.00    +0.131 A 
ENDROOT
BRANCH   1   8
ATOM      7  C   UNL     1      -0.579   5.157 -23.015  0.00  0.00    +0.092 C 
ATOM      8  C   UNL     1      -0.875   3.961 -23.430  0.00  0.00    +0.164 C 
ATOM      9  O   UNL     1      -0.093   2.962 -23.146  0.00  0.00    -0.292 OA
ENDBRANCH   1   8
BRANCH   4  10
ATOM     10  O   UNL     1      -5.188   3.172 -26.224  0.00  0.00    -0.507 OA
ATOM     11  H   UNL     1      -5.340   2.339 -26.626  0.00  0.00    +0.292 HD
ENDBRANCH   4  10
BRANCH   6  12
ATOM     12  O   UNL     1      -0.696   3.325 -25.944  0.00  0.00    -0.506 OA
ATOM     13  H   UNL     1      -0.630   3.218 -26.873  0.00  0.00    +0.292 HD
ENDBRANCH   6  12
TORSDOF 3
ENDMDL
MODEL 7
REMARK VINA RESULT:    -5.794      2.399      3.597
REMARK INTER + INTRA:          -6.857
REMARK INTER:                  -6.488
REMARK INTRA:                  -0.369
REMARK UNBOUND:                -0.385
REMARK  Name = ZINC000000038028
REMARK  4 active torsions:
REMARK  status: ('A' for Active; 'I' for Inactive)
REMARK    1  A    between atoms: C_1  and  C_2
REMARK    2  A    between atoms: C_2  and  C_4
REMARK    3  A    between atoms: C_7  and  O_8
REMARK    4  A    between atoms: C_10  and  O_11
REMARK                            x       y       z     vdW  Elec       q    Type
REMARK                         _______ _______ _______ _____ _____    ______ ____
ROOT
ATOM      1  C   UNL     1      -3.575   4.005 -24.552  0.00  0.00    +0.059 A 
ATOM      2  C   UNL     1      -2.570   4.178 -23.744  0.00  0.00    +0.018 A 
ATOM      3  C   UNL     1      -1.361   3.926 -24.149  0.00  0.00    +0.046 A 
ATOM      4  C   UNL     1      -1.156   3.501 -25.360  0.00  0.00    +0.120 A 
ATOM      5  C   UNL     1      -2.160   3.327 -26.167  0.00  0.00    +0.091 A 
ATOM      6  C   UNL     1      -3.370   3.580 -25.763  0.00  0.00    +0.131 A 
ENDROOT
BRANCH   1   8
ATOM      7  C   UNL     1      -5.262   3.647 -23.104  0.00  0.00    +0.092 C 
ATOM      8  C   UNL     1      -4.784   4.258 -24.148  0.00  0.00    +0.164 C 
ATOM      9  O   UNL     1      -5.516   5.121 -24.787  0.00  0.00    -0.292 OA
ENDBRANCH   1   8
BRANCH   4  10
ATOM     10  O   UNL     1       0.053   3.248 -25.764  0.00  0.00    -0.507 OA
ATOM     11  H   UNL     1       0.343   2.361 -25.851  0.00  0.00    +0.292 HD
ENDBRANCH   4  10
BRANCH   6  12
ATOM     12  O   UNL     1      -4.374   3.407 -26.570  0.00  0.00    -0.506 OA
ATOM     13  H   UNL     1      -4.512   4.002 -27.280  0.00  0.00    +0.292 HD
ENDBRANCH   6  12
TORSDOF 3
ENDMDL
MODEL 8
REMARK VINA RESULT:    -5.716      1.938      3.332
REMARK INTER + INTRA:          -6.770
REMARK INTER:                  -6.387
REMARK INTRA:                  -0.383
REMARK UNBOUND:                -0.385
REMARK  Name = ZINC000000038028
REMARK  4 active torsions:
REMARK  status: ('A' for Active; 'I' for Inactive)
REMARK    1  A    between atoms: C_1  and  C_2
REMARK    2  A    between atoms: C_2  and  C_4
REMARK    3  A    between atoms: C_7  and  O_8
REMARK    4  A    between atoms: C_10  and  O_11
REMARK                            x       y       z     vdW  Elec       q    Type
REMARK                         _______ _______ _______ _____ _____    ______ ____
ROOT
ATOM      1  C   UNL     1      -2.542   3.265 -23.183  0.00  0.00    +0.059 A 
ATOM      2  C   UNL     1      -3.437   3.688 -24.026  0.00  0.00    +0.018 A 
ATOM      3  C   UNL     1      -4.685   3.753 -23.671  0.00  0.00    +0.046 A 
ATOM      4  C   UNL     1      -5.040   3.396 -22.472  0.00  0.00    +0.120 A 
ATOM      5  C   UNL     1      -4.145   2.973 -21.629  0.00  0.00    +0.091 A 
ATOM      6  C   UNL     1      -2.896   2.908 -21.984  0.00  0.00    +0.131 A 
ENDROOT
BRANCH   1   8
ATOM      7  C   UNL     1      -0.625   4.292 -23.769  0.00  0.00    +0.092 C 
ATOM      8  C   UNL     1      -1.293   3.201 -23.539  0.00  0.00    +0.164 C 
ATOM      9  O   UNL     1      -0.713   2.044 -23.664  0.00  0.00    -0.292 OA
ENDBRANCH   1   8
BRANCH   4  10
ATOM     10  O   UNL     1      -6.288   3.461 -22.117  0.00  0.00    -0.507 OA
ATOM     11  H   UNL     1      -6.612   2.901 -21.439  0.00  0.00    +0.292 HD
ENDBRANCH   4  10
BRANCH   6  12
ATOM     12  O   UNL     1      -2.001   2.485 -21.141  0.00  0.00    -0.506 OA
ATOM     13  H   UNL     1      -2.215   1.804 -20.534  0.00  0.00    +0.292 HD
ENDBRANCH   6  12
TORSDOF 3
ENDMDL
MODEL 9
REMARK VINA RESULT:    -5.605      2.721      3.625
REMARK INTER + INTRA:          -6.646
REMARK INTER:                  -6.261
REMARK INTRA:                  -0.385
REMARK UNBOUND:                -0.385
REMARK  Name = ZINC000000038028
REMARK  4 active torsions:
REMARK  status: ('A' for Active; 'I' for Inactive)
REMARK    1  A    between atoms: C_1  and  C_2
REMARK    2  A    between atoms: C_2  and  C_4
REMARK    3  A    between atoms: C_7  and  O_8
REMARK    4  A    between atoms: C_10  and  O_11
REMARK                            x       y       z     vdW  Elec       q    Type
REMARK                         _______ _______ _______ _____ _____    ______ ____
ROOT
ATOM      1  C   UNL     1      -2.171   3.628 -23.083  0.00  0.00    +0.059 A 
ATOM      2  C   UNL     1      -1.503   4.555 -22.463  0.00  0.00    +0.018 A 
ATOM      3  C   UNL     1      -0.379   4.985 -22.954  0.00  0.00    +0.046 A 
ATOM      4  C   UNL     1       0.077   4.489 -24.066  0.00  0.00    +0.120 A 
ATOM      5  C   UNL     1      -0.591   3.563 -24.686  0.00  0.00    +0.091 A 
ATOM      6  C   UNL     1      -1.715   3.132 -24.195  0.00  0.00    +0.131 A 
ENDROOT
BRANCH   1   8
ATOM      7  C   UNL     1      -3.312   2.590 -21.443  0.00  0.00    +0.092 C 
ATOM      8  C   UNL     1      -3.295   3.198 -22.592  0.00  0.00    +0.164 C 
ATOM      9  O   UNL     1      -4.402   3.375 -23.250  0.00  0.00    -0.292 OA
ENDBRANCH   1   8
BRANCH   4  10
ATOM     10  O   UNL     1       1.201   4.920 -24.557  0.00  0.00    -0.507 OA
ATOM     11  H   UNL     1       1.269   5.800 -24.869  0.00  0.00    +0.292 HD
ENDBRANCH   4  10
BRANCH   6  12
ATOM     12  O   UNL     1      -2.383   2.205 -24.816  0.00  0.00    -0.506 OA
ATOM     13  H   UNL     1      -2.809   2.399 -25.628  0.00  0.00    +0.292 HD
ENDBRANCH   6  12
TORSDOF 3
ENDMDL
