MODEL 1
REMARK VINA RESULT:    -9.631      0.000      0.000
REMARK INTER + INTRA:          -9.631
REMARK INTER:                  -9.631
REMARK INTRA:                   0.000
REMARK UNBOUND:                 0.000
REMARK  Name = ZINC000000898052
REMARK  0 active torsions:
REMARK  status: ('A' for Active; 'I' for Inactive)
REMARK                            x       y       z     vdW  Elec       q    Type
REMARK                         _______ _______ _______ _____ _____    ______ ____
ROOT
ATOM      1  O   UNL     1      -1.503   3.733 -25.893  0.00  0.00    -0.267 OA
ATOM      2  C   UNL     1      -2.532   3.673 -25.124  0.00  0.00    +0.256 A 
ATOM      3  C   UNL     1      -3.679   4.076 -25.549  0.00  0.00    +0.073 A 
ATOM      4  C   UNL     1      -4.708   4.016 -24.778  0.00  0.00    +0.035 A 
ATOM      5  C   UNL     1      -4.591   3.553 -23.583  0.00  0.00    +0.088 A 
ATOM      6  N   UNL     1      -5.620   3.493 -22.814  0.00  0.00    -0.253 NA
ATOM      7  C   UNL     1      -5.503   3.031 -21.619  0.00  0.00    +0.112 A 
ATOM      8  C   UNL     1      -4.358   2.629 -21.193  0.00  0.00    +0.030 A 
ATOM      9  C   UNL     1      -3.328   2.689 -21.963  0.00  0.00    +0.012 A 
ATOM     10  C   UNL     1      -1.809   2.413 -22.103  0.00  0.00    +0.008 A 
ATOM     11  C   UNL     1      -0.976   1.923 -21.253  0.00  0.00    +0.010 A 
ATOM     12  C   UNL     1       0.261   1.775 -21.577  0.00  0.00    +0.001 A 
ATOM     13  C   UNL     1       0.665   2.117 -22.750  0.00  0.00    +0.002 A 
ATOM     14  C   UNL     1      -0.167   2.607 -23.599  0.00  0.00    +0.027 A 
ATOM     15  C   UNL     1      -1.404   2.755 -23.277  0.00  0.00    +0.058 A 
ATOM     16  C   UNL     1      -3.445   3.151 -23.158  0.00  0.00    +0.083 A 
ATOM     17  N   UNL     1      -2.415   3.211 -23.928  0.00  0.00    -0.274 N 
ENDROOT
TORSDOF 0
ENDMDL
MODEL 2
REMARK VINA RESULT:    -9.596      1.155      3.934
REMARK INTER + INTRA:          -9.596
REMARK INTER:                  -9.596
REMARK INTRA:                   0.000
REMARK UNBOUND:                 0.000
REMARK  Name = ZINC000000898052
REMARK  0 active torsions:
REMARK  status: ('A' for Active; 'I' for Inactive)
REMARK                            x       y       z     vdW  Elec       q    Type
REMARK                         _______ _______ _______ _____ _____    ______ ____
ROOT
ATOM      1  O   UNL     1      -3.240   4.360 -25.494  0.00  0.00    -0.267 OA
ATOM      2  C   UNL     1      -2.272   3.770 -24.886  0.00  0.00    +0.256 A 
ATOM      3  C   UNL     1      -1.107   3.715 -25.431  0.00  0.00    +0.073 A 
ATOM      4  C   UNL     1      -0.139   3.125 -24.822  0.00  0.00    +0.035 A 
ATOM      5  C   UNL     1      -0.335   2.589 -23.669  0.00  0.00    +0.088 A 
ATOM      6  N   UNL     1       0.633   1.999 -23.061  0.00  0.00    -0.253 NA
ATOM      7  C   UNL     1       0.437   1.464 -21.908  0.00  0.00    +0.112 A 
ATOM      8  C   UNL     1      -0.727   1.518 -21.362  0.00  0.00    +0.030 A 
ATOM      9  C   UNL     1      -1.696   2.109 -21.970  0.00  0.00    +0.012 A 
ATOM     10  C   UNL     1      -3.192   2.512 -21.919  0.00  0.00    +0.008 A 
ATOM     11  C   UNL     1      -4.075   2.298 -21.007  0.00  0.00    +0.010 A 
ATOM     12  C   UNL     1      -5.279   2.724 -21.165  0.00  0.00    +0.001 A 
ATOM     13  C   UNL     1      -5.601   3.365 -22.233  0.00  0.00    +0.002 A 
ATOM     14  C   UNL     1      -4.719   3.579 -23.144  0.00  0.00    +0.027 A 
ATOM     15  C   UNL     1      -3.514   3.153 -22.988  0.00  0.00    +0.058 A 
ATOM     16  C   UNL     1      -1.500   2.644 -23.124  0.00  0.00    +0.083 A 
ATOM     17  N   UNL     1      -2.468   3.235 -23.732  0.00  0.00    -0.274 N 
ENDROOT
TORSDOF 0
ENDMDL
MODEL 3
REMARK VINA RESULT:    -9.495      1.745      3.068
REMARK INTER + INTRA:          -9.495
REMARK INTER:                  -9.495
REMARK INTRA:                   0.000
REMARK UNBOUND:                 0.000
REMARK  Name = ZINC000000898052
REMARK  0 active torsions:
REMARK  status: ('A' for Active; 'I' for Inactive)
REMARK                            x       y       z     vdW  Elec       q    Type
REMARK                         _______ _______ _______ _____ _____    ______ ____
ROOT
ATOM      1  O   UNL     1      -4.064   2.601 -20.515  0.00  0.00    -0.267 OA
ATOM      2  C   UNL     1      -4.183   2.937 -21.751  0.00  0.00    +0.256 A 
ATOM      3  C   UNL     1      -5.317   3.346 -22.202  0.00  0.00    +0.073 A 
ATOM      4  C   UNL     1      -5.435   3.682 -23.438  0.00  0.00    +0.035 A 
ATOM      5  C   UNL     1      -4.420   3.609 -24.225  0.00  0.00    +0.088 A 
ATOM      6  N   UNL     1      -4.538   3.945 -25.461  0.00  0.00    -0.253 NA
ATOM      7  C   UNL     1      -3.522   3.872 -26.247  0.00  0.00    +0.112 A 
ATOM      8  C   UNL     1      -2.388   3.463 -25.798  0.00  0.00    +0.030 A 
ATOM      9  C   UNL     1      -2.269   3.127 -24.561  0.00  0.00    +0.012 A 
ATOM     10  C   UNL     1      -1.316   2.604 -23.456  0.00  0.00    +0.008 A 
ATOM     11  C   UNL     1      -0.069   2.292 -23.520  0.00  0.00    +0.010 A 
ATOM     12  C   UNL     1       0.543   1.871 -22.468  0.00  0.00    +0.001 A 
ATOM     13  C   UNL     1      -0.090   1.763 -21.354  0.00  0.00    +0.002 A 
ATOM     14  C   UNL     1      -1.337   2.075 -21.290  0.00  0.00    +0.027 A 
ATOM     15  C   UNL     1      -1.950   2.495 -22.341  0.00  0.00    +0.058 A 
ATOM     16  C   UNL     1      -3.285   3.200 -23.775  0.00  0.00    +0.083 A 
ATOM     17  N   UNL     1      -3.167   2.864 -22.538  0.00  0.00    -0.274 N 
ENDROOT
TORSDOF 0
ENDMDL
MODEL 4
REMARK VINA RESULT:    -9.088      1.842      5.071
REMARK INTER + INTRA:          -9.088
REMARK INTER:                  -9.088
REMARK INTRA:                   0.000
REMARK UNBOUND:                 0.000
REMARK  Name = ZINC000000898052
REMARK  0 active torsions:
REMARK  status: ('A' for Active; 'I' for Inactive)
REMARK                            x       y       z     vdW  Elec       q    Type
REMARK                         _______ _______ _______ _____ _____    ______ ____
ROOT
ATOM      1  O   UNL     1      -2.994   1.985 -20.995  0.00  0.00    -0.267 OA
ATOM      2  C   UNL     1      -1.961   2.153 -21.744  0.00  0.00    +0.256 A 
ATOM      3  C   UNL     1      -0.814   1.705 -21.370  0.00  0.00    +0.073 A 
ATOM      4  C   UNL     1       0.218   1.874 -22.121  0.00  0.00    +0.035 A 
ATOM      5  C   UNL     1       0.103   2.491 -23.244  0.00  0.00    +0.088 A 
ATOM      6  N   UNL     1       1.134   2.659 -23.993  0.00  0.00    -0.253 NA
ATOM      7  C   UNL     1       1.020   3.276 -25.116  0.00  0.00    +0.112 A 
ATOM      8  C   UNL     1      -0.127   3.725 -25.491  0.00  0.00    +0.030 A 
ATOM      9  C   UNL     1      -1.160   3.556 -24.741  0.00  0.00    +0.012 A 
ATOM     10  C   UNL     1      -2.681   3.801 -24.572  0.00  0.00    +0.008 A 
ATOM     11  C   UNL     1      -3.514   4.395 -25.354  0.00  0.00    +0.010 A 
ATOM     12  C   UNL     1      -4.753   4.491 -25.019  0.00  0.00    +0.001 A 
ATOM     13  C   UNL     1      -5.160   3.993 -23.905  0.00  0.00    +0.002 A 
ATOM     14  C   UNL     1      -4.328   3.399 -23.124  0.00  0.00    +0.027 A 
ATOM     15  C   UNL     1      -3.088   3.303 -23.457  0.00  0.00    +0.058 A 
ATOM     16  C   UNL     1      -1.044   2.939 -23.617  0.00  0.00    +0.083 A 
ATOM     17  N   UNL     1      -2.077   2.770 -22.867  0.00  0.00    -0.274 N 
ENDROOT
TORSDOF 0
ENDMDL
MODEL 5
REMARK VINA RESULT:    -8.962      1.660      3.153
REMARK INTER + INTRA:          -8.962
REMARK INTER:                  -8.962
REMARK INTRA:                   0.000
REMARK UNBOUND:                 0.000
REMARK  Name = ZINC000000898052
REMARK  0 active torsions:
REMARK  status: ('A' for Active; 'I' for Inactive)
REMARK                            x       y       z     vdW  Elec       q    Type
REMARK                         _______ _______ _______ _____ _____    ______ ____
ROOT
ATOM      1  O   UNL     1      -1.293   2.249 -20.790  0.00  0.00    -0.267 OA
ATOM      2  C   UNL     1      -2.298   2.651 -21.485  0.00  0.00    +0.256 A 
ATOM      3  C   UNL     1      -3.477   2.659 -20.969  0.00  0.00    +0.073 A 
ATOM      4  C   UNL     1      -4.482   3.062 -21.666  0.00  0.00    +0.035 A 
ATOM      5  C   UNL     1      -4.308   3.457 -22.877  0.00  0.00    +0.088 A 
ATOM      6  N   UNL     1      -5.312   3.860 -23.573  0.00  0.00    -0.253 NA
ATOM      7  C   UNL     1      -5.138   4.256 -24.785  0.00  0.00    +0.112 A 
ATOM      8  C   UNL     1      -3.960   4.249 -25.301  0.00  0.00    +0.030 A 
ATOM      9  C   UNL     1      -2.954   3.846 -24.605  0.00  0.00    +0.012 A 
ATOM     10  C   UNL     1      -1.425   3.594 -24.581  0.00  0.00    +0.008 A 
ATOM     11  C   UNL     1      -0.543   3.775 -25.501  0.00  0.00    +0.010 A 
ATOM     12  C   UNL     1       0.693   3.498 -25.270  0.00  0.00    +0.001 A 
ATOM     13  C   UNL     1       1.047   3.040 -24.121  0.00  0.00    +0.002 A 
ATOM     14  C   UNL     1       0.165   2.859 -23.202  0.00  0.00    +0.027 A 
ATOM     15  C   UNL     1      -1.071   3.136 -23.431  0.00  0.00    +0.058 A 
ATOM     16  C   UNL     1      -3.129   3.450 -23.393  0.00  0.00    +0.083 A 
ATOM     17  N   UNL     1      -2.124   3.047 -22.697  0.00  0.00    -0.274 N 
ENDROOT
TORSDOF 0
ENDMDL
MODEL 6
REMARK VINA RESULT:    -8.842      1.799      4.473
REMARK INTER + INTRA:          -8.842
REMARK INTER:                  -8.842
REMARK INTRA:                   0.000
REMARK UNBOUND:                 0.000
REMARK  Name = ZINC000000898052
REMARK  0 active torsions:
REMARK  status: ('A' for Active; 'I' for Inactive)
REMARK                            x       y       z     vdW  Elec       q    Type
REMARK                         _______ _______ _______ _____ _____    ______ ____
ROOT
ATOM      1  O   UNL     1      -5.574   3.739 -22.243  0.00  0.00    -0.267 OA
ATOM      2  C   UNL     1      -4.372   3.373 -21.970  0.00  0.00    +0.256 A 
ATOM      3  C   UNL     1      -4.031   3.136 -20.752  0.00  0.00    +0.073 A 
ATOM      4  C   UNL     1      -2.828   2.769 -20.480  0.00  0.00    +0.035 A 
ATOM      5  C   UNL     1      -1.965   2.641 -21.426  0.00  0.00    +0.088 A 
ATOM      6  N   UNL     1      -0.762   2.275 -21.153  0.00  0.00    -0.253 NA
ATOM      7  C   UNL     1       0.101   2.146 -22.099  0.00  0.00    +0.112 A 
ATOM      8  C   UNL     1      -0.239   2.383 -23.317  0.00  0.00    +0.030 A 
ATOM      9  C   UNL     1      -1.443   2.749 -23.590  0.00  0.00    +0.012 A 
ATOM     10  C   UNL     1      -2.442   3.157 -24.702  0.00  0.00    +0.008 A 
ATOM     11  C   UNL     1      -2.268   3.258 -25.974  0.00  0.00    +0.010 A 
ATOM     12  C   UNL     1      -3.245   3.618 -26.730  0.00  0.00    +0.001 A 
ATOM     13  C   UNL     1      -4.396   3.878 -26.216  0.00  0.00    +0.002 A 
ATOM     14  C   UNL     1      -4.570   3.777 -24.946  0.00  0.00    +0.027 A 
ATOM     15  C   UNL     1      -3.594   3.417 -24.188  0.00  0.00    +0.058 A 
ATOM     16  C   UNL     1      -2.305   2.878 -22.644  0.00  0.00    +0.083 A 
ATOM     17  N   UNL     1      -3.509   3.244 -22.916  0.00  0.00    -0.274 N 
ENDROOT
TORSDOF 0
ENDMDL
MODEL 7
REMARK VINA RESULT:    -8.820      1.631      3.787
REMARK INTER + INTRA:          -8.820
REMARK INTER:                  -8.820
REMARK INTRA:                   0.000
REMARK UNBOUND:                 0.000
REMARK  Name = ZINC000000898052
REMARK  0 active torsions:
REMARK  status: ('A' for Active; 'I' for Inactive)
REMARK                            x       y       z     vdW  Elec       q    Type
REMARK                         _______ _______ _______ _____ _____    ______ ____
ROOT
ATOM      1  O   UNL     1      -5.301   3.414 -25.119  0.00  0.00    -0.267 OA
ATOM      2  C   UNL     1      -4.017   3.454 -25.192  0.00  0.00    +0.256 A 
ATOM      3  C   UNL     1      -3.439   3.535 -26.339  0.00  0.00    +0.073 A 
ATOM      4  C   UNL     1      -2.154   3.575 -26.410  0.00  0.00    +0.035 A 
ATOM      5  C   UNL     1      -1.448   3.534 -25.335  0.00  0.00    +0.088 A 
ATOM      6  N   UNL     1      -0.165   3.574 -25.407  0.00  0.00    -0.253 NA
ATOM      7  C   UNL     1       0.541   3.534 -24.332  0.00  0.00    +0.112 A 
ATOM      8  C   UNL     1      -0.037   3.453 -23.185  0.00  0.00    +0.030 A 
ATOM      9  C   UNL     1      -1.321   3.413 -23.113  0.00  0.00    +0.012 A 
ATOM     10  C   UNL     1      -2.555   3.326 -22.179  0.00  0.00    +0.008 A 
ATOM     11  C   UNL     1      -2.616   3.252 -20.895  0.00  0.00    +0.010 A 
ATOM     12  C   UNL     1      -3.760   3.187 -20.308  0.00  0.00    +0.001 A 
ATOM     13  C   UNL     1      -4.842   3.196 -21.004  0.00  0.00    +0.002 A 
ATOM     14  C   UNL     1      -4.781   3.269 -22.287  0.00  0.00    +0.027 A 
ATOM     15  C   UNL     1      -3.638   3.335 -22.875  0.00  0.00    +0.058 A 
ATOM     16  C   UNL     1      -2.027   3.454 -24.188  0.00  0.00    +0.083 A 
ATOM     17  N   UNL     1      -3.312   3.414 -24.116  0.00  0.00    -0.274 N 
ENDROOT
TORSDOF 0
ENDMDL
MODEL 8
REMARK VINA RESULT:    -8.520      1.327      3.672
REMARK INTER + INTRA:          -8.520
REMARK INTER:                  -8.520
REMARK INTRA:                   0.000
REMARK UNBOUND:                 0.000
REMARK  Name = ZINC000000898052
REMARK  0 active torsions:
REMARK  status: ('A' for Active; 'I' for Inactive)
REMARK                            x       y       z     vdW  Elec       q    Type
REMARK                         _______ _______ _______ _____ _____    ______ ____
ROOT
ATOM      1  O   UNL     1       0.127   2.436 -24.086  0.00  0.00    -0.267 OA
ATOM      2  C   UNL     1      -0.803   2.508 -23.200  0.00  0.00    +0.256 A 
ATOM      3  C   UNL     1      -0.544   2.228 -21.970  0.00  0.00    +0.073 A 
ATOM      4  C   UNL     1      -1.475   2.301 -21.085  0.00  0.00    +0.035 A 
ATOM      5  C   UNL     1      -2.664   2.653 -21.428  0.00  0.00    +0.088 A 
ATOM      6  N   UNL     1      -3.594   2.725 -20.543  0.00  0.00    -0.253 NA
ATOM      7  C   UNL     1      -4.783   3.077 -20.886  0.00  0.00    +0.112 A 
ATOM      8  C   UNL     1      -5.043   3.357 -22.115  0.00  0.00    +0.030 A 
ATOM      9  C   UNL     1      -4.112   3.284 -23.001  0.00  0.00    +0.012 A 
ATOM     10  C   UNL     1      -3.744   3.457 -24.497  0.00  0.00    +0.008 A 
ATOM     11  C   UNL     1      -4.478   3.813 -25.493  0.00  0.00    +0.010 A 
ATOM     12  C   UNL     1      -3.966   3.895 -26.672  0.00  0.00    +0.001 A 
ATOM     13  C   UNL     1      -2.723   3.622 -26.855  0.00  0.00    +0.002 A 
ATOM     14  C   UNL     1      -1.989   3.267 -25.859  0.00  0.00    +0.027 A 
ATOM     15  C   UNL     1      -2.499   3.184 -24.680  0.00  0.00    +0.058 A 
ATOM     16  C   UNL     1      -2.923   2.932 -22.657  0.00  0.00    +0.083 A 
ATOM     17  N   UNL     1      -1.992   2.860 -23.544  0.00  0.00    -0.274 N 
ENDROOT
TORSDOF 0
ENDMDL
MODEL 9
REMARK VINA RESULT:    -8.405      2.451      5.249
REMARK INTER + INTRA:          -8.405
REMARK INTER:                  -8.405
REMARK INTRA:                   0.000
REMARK UNBOUND:                 0.000
REMARK  Name = ZINC000000898052
REMARK  0 active torsions:
REMARK  status: ('A' for Active; 'I' for Inactive)
REMARK                            x       y       z     vdW  Elec       q    Type
REMARK                         _______ _______ _______ _____ _____    ______ ____
ROOT
ATOM      1  O   UNL     1       0.188   1.129 -20.481  0.00  0.00    -0.267 OA
ATOM      2  C   UNL     1       0.625   1.664 -21.566  0.00  0.00    +0.256 A 
ATOM      3  C   UNL     1       1.867   1.555 -21.884  0.00  0.00    +0.073 A 
ATOM      4  C   UNL     1       2.302   2.091 -22.970  0.00  0.00    +0.035 A 
ATOM      5  C   UNL     1       1.496   2.737 -23.738  0.00  0.00    +0.088 A 
ATOM      6  N   UNL     1       1.932   3.273 -24.823  0.00  0.00    -0.253 NA
ATOM      7  C   UNL     1       1.126   3.918 -25.590  0.00  0.00    +0.112 A 
ATOM      8  C   UNL     1      -0.117   4.028 -25.272  0.00  0.00    +0.030 A 
ATOM      9  C   UNL     1      -0.553   3.492 -24.186  0.00  0.00    +0.012 A 
ATOM     10  C   UNL     1      -1.784   3.249 -23.276  0.00  0.00    +0.008 A 
ATOM     11  C   UNL     1      -3.006   3.627 -23.420  0.00  0.00    +0.010 A 
ATOM     12  C   UNL     1      -3.884   3.314 -22.533  0.00  0.00    +0.001 A 
ATOM     13  C   UNL     1      -3.542   2.624 -21.502  0.00  0.00    +0.002 A 
ATOM     14  C   UNL     1      -2.321   2.246 -21.358  0.00  0.00    +0.027 A 
ATOM     15  C   UNL     1      -1.441   2.559 -22.244  0.00  0.00    +0.058 A 
ATOM     16  C   UNL     1       0.254   2.846 -23.419  0.00  0.00    +0.083 A 
ATOM     17  N   UNL     1      -0.182   2.310 -22.333  0.00  0.00    -0.274 N 
ENDROOT
TORSDOF 0
ENDMDL
