MODEL 1
REMARK VINA RESULT:    -9.759      0.000      0.000
REMARK INTER + INTRA:          -9.759
REMARK INTER:                  -9.759
REMARK INTRA:                   0.000
REMARK UNBOUND:                 0.000
REMARK  Name = ZINC000004104807
REMARK  3 active torsions:
REMARK  status: ('A' for Active; 'I' for Inactive)
REMARK    1  A    between atoms: C_1  and  C_2
REMARK    2  A    between atoms: C_10  and  C_11
REMARK    3  A    between atoms: C_15  and  C_16
REMARK                            x       y       z     vdW  Elec       q    Type
REMARK                         _______ _______ _______ _____ _____    ______ ____
ROOT
ATOM      1  C   UNL     1       0.186   2.614 -24.414  0.00  0.00    +0.019 C 
ATOM      2  C   UNL     1      -0.386   2.545 -23.248  0.00  0.00    +0.101 C 
ATOM      3  C   UNL     1       0.199   2.247 -22.126  0.00  0.00    +0.311 C 
ATOM      4  O   UNL     1      -0.696   2.280 -21.185  0.00  0.00    -0.458 OA
ATOM      5  C   UNL     1      -1.835   2.598 -21.725  0.00  0.00    +0.212 C 
ATOM      6  C   UNL     1      -3.022   2.759 -21.220  0.00  0.00    +0.191 C 
ATOM      7  O   UNL     1      -4.209   2.921 -20.715  0.00  0.00    -0.361 OA
ATOM      8  C   UNL     1      -4.017   3.084 -21.990  0.00  0.00    +0.097 C 
ATOM      9  C   UNL     1      -5.277   3.365 -22.143  0.00  0.00    +0.044 C 
ATOM     10  C   UNL     1      -3.825   3.248 -23.265  0.00  0.00    +0.037 C 
ATOM     11  C   UNL     1      -4.821   3.574 -24.036  0.00  0.00    +0.003 C 
ATOM     12  C   UNL     1      -4.629   3.737 -25.311  0.00  0.00    +0.003 C 
ATOM     13  C   UNL     1      -3.442   3.576 -25.816  0.00  0.00    -0.014 C 
ATOM     14  C   UNL     1      -3.250   3.739 -27.091  0.00  0.00    +0.007 C 
ATOM     15  C   UNL     1      -2.447   3.251 -25.046  0.00  0.00    +0.004 C 
ATOM     16  C   UNL     1      -2.638   3.087 -23.770  0.00  0.00    +0.008 C 
ATOM     17  O   UNL     1       1.459   1.966 -21.973  0.00  0.00    -0.251 OA
ATOM     18  C   UNL     1      -1.643   2.761 -23.000  0.00  0.00    +0.046 C 
ENDROOT
TORSDOF 0
ENDMDL
MODEL 2
REMARK VINA RESULT:    -9.746      1.946      3.509
REMARK INTER + INTRA:          -9.746
REMARK INTER:                  -9.746
REMARK INTRA:                   0.000
REMARK UNBOUND:                 0.000
REMARK  Name = ZINC000004104807
REMARK  3 active torsions:
REMARK  status: ('A' for Active; 'I' for Inactive)
REMARK    1  A    between atoms: C_1  and  C_2
REMARK    2  A    between atoms: C_10  and  C_11
REMARK    3  A    between atoms: C_15  and  C_16
REMARK                            x       y       z     vdW  Elec       q    Type
REMARK                         _______ _______ _______ _____ _____    ______ ____
ROOT
ATOM      1  C   UNL     1      -0.274   2.282 -22.360  0.00  0.00    +0.019 C 
ATOM      2  C   UNL     1      -0.648   2.791 -23.496  0.00  0.00    +0.101 C 
ATOM      3  C   UNL     1       0.117   3.011 -24.524  0.00  0.00    +0.311 C 
ATOM      4  O   UNL     1      -0.615   3.526 -25.467  0.00  0.00    -0.458 OA
ATOM      5  C   UNL     1      -1.833   3.624 -25.022  0.00  0.00    +0.212 C 
ATOM      6  C   UNL     1      -2.925   4.068 -25.568  0.00  0.00    +0.191 C 
ATOM      7  O   UNL     1      -4.018   4.512 -26.115  0.00  0.00    -0.361 OA
ATOM      8  C   UNL     1      -4.038   4.058 -24.897  0.00  0.00    +0.097 C 
ATOM      9  C   UNL     1      -5.312   4.308 -24.825  0.00  0.00    +0.044 C 
ATOM     10  C   UNL     1      -4.058   3.604 -23.680  0.00  0.00    +0.037 C 
ATOM     11  C   UNL     1      -5.172   3.593 -23.008  0.00  0.00    +0.003 C 
ATOM     12  C   UNL     1      -5.192   3.139 -21.790  0.00  0.00    +0.003 C 
ATOM     13  C   UNL     1      -4.099   2.695 -21.243  0.00  0.00    -0.014 C 
ATOM     14  C   UNL     1      -4.119   2.241 -20.026  0.00  0.00    +0.007 C 
ATOM     15  C   UNL     1      -2.986   2.705 -21.915  0.00  0.00    +0.004 C 
ATOM     16  C   UNL     1      -2.965   3.160 -23.133  0.00  0.00    +0.008 C 
ATOM     17  O   UNL     1       1.390   2.761 -24.596  0.00  0.00    -0.251 OA
ATOM     18  C   UNL     1      -1.853   3.170 -23.804  0.00  0.00    +0.046 C 
ENDROOT
TORSDOF 0
ENDMDL
MODEL 3
REMARK VINA RESULT:    -9.574      2.135      4.986
REMARK INTER + INTRA:          -9.574
REMARK INTER:                  -9.574
REMARK INTRA:                   0.000
REMARK UNBOUND:                 0.000
REMARK  Name = ZINC000004104807
REMARK  3 active torsions:
REMARK  status: ('A' for Active; 'I' for Inactive)
REMARK    1  A    between atoms: C_1  and  C_2
REMARK    2  A    between atoms: C_10  and  C_11
REMARK    3  A    between atoms: C_15  and  C_16
REMARK                            x       y       z     vdW  Elec       q    Type
REMARK                         _______ _______ _______ _____ _____    ______ ____
ROOT
ATOM      1  C   UNL     1      -3.964   2.466 -20.686  0.00  0.00    +0.019 C 
ATOM      2  C   UNL     1      -4.142   2.896 -21.900  0.00  0.00    +0.101 C 
ATOM      3  C   UNL     1      -5.268   3.296 -22.412  0.00  0.00    +0.311 C 
ATOM      4  O   UNL     1      -5.047   3.650 -23.643  0.00  0.00    -0.458 OA
ATOM      5  C   UNL     1      -3.784   3.468 -23.892  0.00  0.00    +0.212 C 
ATOM      6  C   UNL     1      -3.071   3.667 -24.961  0.00  0.00    +0.191 C 
ATOM      7  O   UNL     1      -2.359   3.866 -26.030  0.00  0.00    -0.361 OA
ATOM      8  C   UNL     1      -1.799   3.400 -24.953  0.00  0.00    +0.097 C 
ATOM      9  C   UNL     1      -0.653   3.361 -25.565  0.00  0.00    +0.044 C 
ATOM     10  C   UNL     1      -1.240   2.935 -23.876  0.00  0.00    +0.037 C 
ATOM     11  C   UNL     1       0.033   2.668 -23.867  0.00  0.00    +0.003 C 
ATOM     12  C   UNL     1       0.592   2.203 -22.790  0.00  0.00    +0.003 C 
ATOM     13  C   UNL     1      -0.121   2.004 -21.721  0.00  0.00    -0.014 C 
ATOM     14  C   UNL     1       0.438   1.539 -20.644  0.00  0.00    +0.007 C 
ATOM     15  C   UNL     1      -1.393   2.271 -21.729  0.00  0.00    +0.004 C 
ATOM     16  C   UNL     1      -1.953   2.736 -22.807  0.00  0.00    +0.008 C 
ATOM     17  O   UNL     1      -6.414   3.335 -21.800  0.00  0.00    -0.251 OA
ATOM     18  C   UNL     1      -3.225   3.003 -22.815  0.00  0.00    +0.046 C 
ENDROOT
TORSDOF 0
ENDMDL
MODEL 4
REMARK VINA RESULT:    -9.049      2.380      4.130
REMARK INTER + INTRA:          -9.049
REMARK INTER:                  -9.049
REMARK INTRA:                   0.000
REMARK UNBOUND:                 0.000
REMARK  Name = ZINC000004104807
REMARK  3 active torsions:
REMARK  status: ('A' for Active; 'I' for Inactive)
REMARK    1  A    between atoms: C_1  and  C_2
REMARK    2  A    between atoms: C_10  and  C_11
REMARK    3  A    between atoms: C_15  and  C_16
REMARK                            x       y       z     vdW  Elec       q    Type
REMARK                         _______ _______ _______ _____ _____    ______ ____
ROOT
ATOM      1  C   UNL     1      -1.541   3.379 -25.921  0.00  0.00    +0.019 C 
ATOM      2  C   UNL     1      -2.764   3.578 -25.528  0.00  0.00    +0.101 C 
ATOM      3  C   UNL     1      -3.749   3.986 -26.272  0.00  0.00    +0.311 C 
ATOM      4  O   UNL     1      -4.811   4.065 -25.526  0.00  0.00    -0.458 OA
ATOM      5  C   UNL     1      -4.482   3.705 -24.321  0.00  0.00    +0.212 C 
ATOM      6  C   UNL     1      -5.171   3.612 -23.222  0.00  0.00    +0.191 C 
ATOM      7  O   UNL     1      -5.861   3.520 -22.124  0.00  0.00    -0.361 OA
ATOM      8  C   UNL     1      -4.596   3.219 -22.125  0.00  0.00    +0.097 C 
ATOM      9  C   UNL     1      -4.661   2.939 -20.858  0.00  0.00    +0.044 C 
ATOM     10  C   UNL     1      -3.331   2.919 -22.127  0.00  0.00    +0.037 C 
ATOM     11  C   UNL     1      -2.755   2.525 -21.029  0.00  0.00    +0.003 C 
ATOM     12  C   UNL     1      -1.491   2.225 -21.030  0.00  0.00    +0.003 C 
ATOM     13  C   UNL     1      -0.801   2.317 -22.129  0.00  0.00    -0.014 C 
ATOM     14  C   UNL     1       0.463   2.017 -22.130  0.00  0.00    +0.007 C 
ATOM     15  C   UNL     1      -1.377   2.710 -23.226  0.00  0.00    +0.004 C 
ATOM     16  C   UNL     1      -2.642   3.011 -23.225  0.00  0.00    +0.008 C 
ATOM     17  O   UNL     1      -3.683   4.267 -27.539  0.00  0.00    -0.251 OA
ATOM     18  C   UNL     1      -3.217   3.404 -24.322  0.00  0.00    +0.046 C 
ENDROOT
TORSDOF 0
ENDMDL
MODEL 5
REMARK VINA RESULT:    -8.844      2.826      4.492
REMARK INTER + INTRA:          -8.844
REMARK INTER:                  -8.844
REMARK INTRA:                   0.000
REMARK UNBOUND:                 0.000
REMARK  Name = ZINC000004104807
REMARK  3 active torsions:
REMARK  status: ('A' for Active; 'I' for Inactive)
REMARK    1  A    between atoms: C_1  and  C_2
REMARK    2  A    between atoms: C_10  and  C_11
REMARK    3  A    between atoms: C_15  and  C_16
REMARK                            x       y       z     vdW  Elec       q    Type
REMARK                         _______ _______ _______ _____ _____    ______ ____
ROOT
ATOM      1  C   UNL     1       0.931   1.425 -20.332  0.00  0.00    +0.019 C 
ATOM      2  C   UNL     1       1.537   1.477 -21.481  0.00  0.00    +0.101 C 
ATOM      3  C   UNL     1       2.682   0.932 -21.766  0.00  0.00    +0.311 C 
ATOM      4  O   UNL     1       2.957   1.201 -23.008  0.00  0.00    -0.458 OA
ATOM      5  C   UNL     1       1.982   1.913 -23.490  0.00  0.00    +0.212 C 
ATOM      6  C   UNL     1       1.780   2.427 -24.666  0.00  0.00    +0.191 C 
ATOM      7  O   UNL     1       1.578   2.942 -25.843  0.00  0.00    -0.361 OA
ATOM      8  C   UNL     1       0.701   3.113 -24.899  0.00  0.00    +0.097 C 
ATOM      9  C   UNL     1      -0.039   3.806 -25.713  0.00  0.00    +0.044 C 
ATOM     10  C   UNL     1      -0.177   3.283 -23.956  0.00  0.00    +0.037 C 
ATOM     11  C   UNL     1      -1.257   3.969 -24.188  0.00  0.00    +0.003 C 
ATOM     12  C   UNL     1      -2.134   4.140 -23.245  0.00  0.00    +0.003 C 
ATOM     13  C   UNL     1      -1.932   3.625 -22.068  0.00  0.00    -0.014 C 
ATOM     14  C   UNL     1      -2.810   3.795 -21.124  0.00  0.00    +0.007 C 
ATOM     15  C   UNL     1      -0.853   2.940 -21.835  0.00  0.00    +0.004 C 
ATOM     16  C   UNL     1       0.025   2.769 -22.779  0.00  0.00    +0.008 C 
ATOM     17  O   UNL     1       3.422   0.239 -20.952  0.00  0.00    -0.251 OA
ATOM     18  C   UNL     1       1.105   2.083 -22.546  0.00  0.00    +0.046 C 
ENDROOT
TORSDOF 0
ENDMDL
MODEL 6
REMARK VINA RESULT:    -8.640      1.419      4.368
REMARK INTER + INTRA:          -8.640
REMARK INTER:                  -8.640
REMARK INTRA:                   0.000
REMARK UNBOUND:                 0.000
REMARK  Name = ZINC000004104807
REMARK  3 active torsions:
REMARK  status: ('A' for Active; 'I' for Inactive)
REMARK    1  A    between atoms: C_1  and  C_2
REMARK    2  A    between atoms: C_10  and  C_11
REMARK    3  A    between atoms: C_15  and  C_16
REMARK                            x       y       z     vdW  Elec       q    Type
REMARK                         _______ _______ _______ _____ _____    ______ ____
ROOT
ATOM      1  C   UNL     1      -2.979   4.195 -24.394  0.00  0.00    +0.019 C 
ATOM      2  C   UNL     1      -2.814   3.464 -23.332  0.00  0.00    +0.101 C 
ATOM      3  C   UNL     1      -3.745   3.107 -22.498  0.00  0.00    +0.311 C 
ATOM      4  O   UNL     1      -3.196   2.383 -21.568  0.00  0.00    -0.458 OA
ATOM      5  C   UNL     1      -1.925   2.293 -21.828  0.00  0.00    +0.212 C 
ATOM      6  C   UNL     1      -0.952   1.688 -21.213  0.00  0.00    +0.191 C 
ATOM      7  O   UNL     1       0.020   1.084 -20.597  0.00  0.00    -0.361 OA
ATOM      8  C   UNL     1       0.256   1.752 -21.688  0.00  0.00    +0.097 C 
ATOM      9  C   UNL     1       1.515   1.440 -21.607  0.00  0.00    +0.044 C 
ATOM     10  C   UNL     1       0.491   2.419 -22.778  0.00  0.00    +0.037 C 
ATOM     11  C   UNL     1       1.700   2.483 -23.253  0.00  0.00    +0.003 C 
ATOM     12  C   UNL     1       1.936   3.151 -24.343  0.00  0.00    +0.003 C 
ATOM     13  C   UNL     1       0.963   3.755 -24.958  0.00  0.00    -0.014 C 
ATOM     14  C   UNL     1       1.198   4.423 -26.048  0.00  0.00    +0.007 C 
ATOM     15  C   UNL     1      -0.245   3.692 -24.483  0.00  0.00    +0.004 C 
ATOM     16  C   UNL     1      -0.481   3.024 -23.393  0.00  0.00    +0.008 C 
ATOM     17  O   UNL     1      -5.004   3.419 -22.578  0.00  0.00    -0.251 OA
ATOM     18  C   UNL     1      -1.690   2.960 -22.918  0.00  0.00    +0.046 C 
ENDROOT
TORSDOF 0
ENDMDL
MODEL 7
REMARK VINA RESULT:    -8.220      1.935      4.088
REMARK INTER + INTRA:          -8.220
REMARK INTER:                  -8.220
REMARK INTRA:                   0.000
REMARK UNBOUND:                 0.000
REMARK  Name = ZINC000004104807
REMARK  3 active torsions:
REMARK  status: ('A' for Active; 'I' for Inactive)
REMARK    1  A    between atoms: C_1  and  C_2
REMARK    2  A    between atoms: C_10  and  C_11
REMARK    3  A    between atoms: C_15  and  C_16
REMARK                            x       y       z     vdW  Elec       q    Type
REMARK                         _______ _______ _______ _____ _____    ______ ____
ROOT
ATOM      1  C   UNL     1      -1.746   2.773 -20.860  0.00  0.00    +0.019 C 
ATOM      2  C   UNL     1      -2.772   2.885 -21.651  0.00  0.00    +0.101 C 
ATOM      3  C   UNL     1      -4.020   2.797 -21.300  0.00  0.00    +0.311 C 
ATOM      4  O   UNL     1      -4.749   2.961 -22.364  0.00  0.00    -0.458 OA
ATOM      5  C   UNL     1      -3.951   3.151 -23.372  0.00  0.00    +0.212 C 
ATOM      6  C   UNL     1      -4.179   3.361 -24.635  0.00  0.00    +0.191 C 
ATOM      7  O   UNL     1      -4.407   3.570 -25.898  0.00  0.00    -0.361 OA
ATOM      8  C   UNL     1      -3.185   3.523 -25.457  0.00  0.00    +0.097 C 
ATOM      9  C   UNL     1      -2.743   3.738 -26.660  0.00  0.00    +0.044 C 
ATOM     10  C   UNL     1      -1.963   3.476 -25.016  0.00  0.00    +0.037 C 
ATOM     11  C   UNL     1      -0.969   3.638 -25.838  0.00  0.00    +0.003 C 
ATOM     12  C   UNL     1       0.253   3.591 -25.397  0.00  0.00    +0.003 C 
ATOM     13  C   UNL     1       0.481   3.381 -24.135  0.00  0.00    -0.014 C 
ATOM     14  C   UNL     1       1.703   3.334 -23.694  0.00  0.00    +0.007 C 
ATOM     15  C   UNL     1      -0.512   3.219 -23.313  0.00  0.00    +0.004 C 
ATOM     16  C   UNL     1      -1.735   3.266 -23.754  0.00  0.00    +0.008 C 
ATOM     17  O   UNL     1      -4.462   2.582 -20.097  0.00  0.00    -0.251 OA
ATOM     18  C   UNL     1      -2.729   3.104 -22.932  0.00  0.00    +0.046 C 
ENDROOT
TORSDOF 0
ENDMDL
MODEL 8
REMARK VINA RESULT:    -8.115      2.943      5.796
REMARK INTER + INTRA:          -8.115
REMARK INTER:                  -8.115
REMARK INTRA:                   0.000
REMARK UNBOUND:                 0.000
REMARK  Name = ZINC000004104807
REMARK  3 active torsions:
REMARK  status: ('A' for Active; 'I' for Inactive)
REMARK    1  A    between atoms: C_1  and  C_2
REMARK    2  A    between atoms: C_10  and  C_11
REMARK    3  A    between atoms: C_15  and  C_16
REMARK                            x       y       z     vdW  Elec       q    Type
REMARK                         _______ _______ _______ _____ _____    ______ ____
ROOT
ATOM      1  C   UNL     1       1.226   4.010 -25.514  0.00  0.00    +0.019 C 
ATOM      2  C   UNL     1       0.483   3.413 -24.629  0.00  0.00    +0.101 C 
ATOM      3  C   UNL     1      -0.808   3.273 -24.686  0.00  0.00    +0.311 C 
ATOM      4  O   UNL     1      -1.189   2.626 -23.625  0.00  0.00    -0.458 OA
ATOM      5  C   UNL     1      -0.133   2.367 -22.912  0.00  0.00    +0.212 C 
ATOM      6  C   UNL     1       0.021   1.751 -21.778  0.00  0.00    +0.191 C 
ATOM      7  O   UNL     1       0.176   1.134 -20.644  0.00  0.00    -0.361 OA
ATOM      8  C   UNL     1       1.208   1.621 -21.265  0.00  0.00    +0.097 C 
ATOM      9  C   UNL     1       1.983   1.190 -20.314  0.00  0.00    +0.044 C 
ATOM     10  C   UNL     1       2.241   2.108 -21.886  0.00  0.00    +0.037 C 
ATOM     11  C   UNL     1       3.429   1.978 -21.373  0.00  0.00    +0.003 C 
ATOM     12  C   UNL     1       4.462   2.465 -21.994  0.00  0.00    +0.003 C 
ATOM     13  C   UNL     1       4.308   3.081 -23.128  0.00  0.00    -0.014 C 
ATOM     14  C   UNL     1       5.341   3.568 -23.750  0.00  0.00    +0.007 C 
ATOM     15  C   UNL     1       3.121   3.211 -23.641  0.00  0.00    +0.004 C 
ATOM     16  C   UNL     1       2.087   2.724 -23.020  0.00  0.00    +0.008 C 
ATOM     17  O   UNL     1      -1.583   3.703 -25.637  0.00  0.00    -0.251 OA
ATOM     18  C   UNL     1       0.900   2.854 -23.533  0.00  0.00    +0.046 C 
ENDROOT
TORSDOF 0
ENDMDL
MODEL 9
REMARK VINA RESULT:    -8.091      1.727      4.192
REMARK INTER + INTRA:          -8.091
REMARK INTER:                  -8.091
REMARK INTRA:                   0.000
REMARK UNBOUND:                 0.000
REMARK  Name = ZINC000004104807
REMARK  3 active torsions:
REMARK  status: ('A' for Active; 'I' for Inactive)
REMARK    1  A    between atoms: C_1  and  C_2
REMARK    2  A    between atoms: C_10  and  C_11
REMARK    3  A    between atoms: C_15  and  C_16
REMARK                            x       y       z     vdW  Elec       q    Type
REMARK                         _______ _______ _______ _____ _____    ______ ____
ROOT
ATOM      1  C   UNL     1      -2.565   3.746 -26.428  0.00  0.00    +0.019 C 
ATOM      2  C   UNL     1      -3.142   3.594 -25.273  0.00  0.00    +0.101 C 
ATOM      3  C   UNL     1      -4.405   3.767 -25.021  0.00  0.00    +0.311 C 
ATOM      4  O   UNL     1      -4.601   3.523 -23.760  0.00  0.00    -0.458 OA
ATOM      5  C   UNL     1      -3.458   3.199 -23.232  0.00  0.00    +0.212 C 
ATOM      6  C   UNL     1      -3.122   2.870 -22.020  0.00  0.00    +0.191 C 
ATOM      7  O   UNL     1      -2.786   2.540 -20.808  0.00  0.00    -0.361 OA
ATOM      8  C   UNL     1      -1.885   2.584 -21.743  0.00  0.00    +0.097 C 
ATOM      9  C   UNL     1      -0.976   2.230 -20.884  0.00  0.00    +0.044 C 
ATOM     10  C   UNL     1      -0.983   2.629 -22.678  0.00  0.00    +0.037 C 
ATOM     11  C   UNL     1       0.255   2.343 -22.402  0.00  0.00    +0.003 C 
ATOM     12  C   UNL     1       1.157   2.387 -23.337  0.00  0.00    +0.003 C 
ATOM     13  C   UNL     1       0.821   2.717 -24.549  0.00  0.00    -0.014 C 
ATOM     14  C   UNL     1       1.722   2.761 -25.485  0.00  0.00    +0.007 C 
ATOM     15  C   UNL     1      -0.417   3.002 -24.826  0.00  0.00    +0.004 C 
ATOM     16  C   UNL     1      -1.319   2.958 -23.890  0.00  0.00    +0.008 C 
ATOM     17  O   UNL     1      -5.314   4.122 -25.881  0.00  0.00    -0.251 OA
ATOM     18  C   UNL     1      -2.557   3.243 -24.167  0.00  0.00    +0.046 C 
ENDROOT
TORSDOF 0
ENDMDL
