MODEL 1
REMARK VINA RESULT:   -10.037      0.000      0.000
REMARK INTER + INTRA:         -11.500
REMARK INTER:                 -11.199
REMARK INTRA:                  -0.301
REMARK UNBOUND:                -0.290
REMARK  Name = COc1cc2c(cc1OC)[C@@]13CCN[C@@H](C2)[C@H]1CCC(=O)C3                   ZINC000253504536
REMARK  4 active torsions:
REMARK  status: ('A' for Active; 'I' for Inactive)
REMARK    1  A    between atoms: C_1  and  O_2
REMARK    2  A    between atoms: O_2  and  C_3
REMARK    3  A    between atoms: C_8  and  O_9
REMARK    4  A    between atoms: O_9  and  C_10
REMARK                            x       y       z     vdW  Elec       q    Type
REMARK                         _______ _______ _______ _____ _____    ______ ____
ROOT
ATOM      1  C   UNL     1       0.578   2.145 -23.011  0.00  0.00    +0.162 A 
ATOM      2  C   UNL     1      -0.258   1.965 -22.077  0.00  0.00    +0.053 A 
ATOM      3  C   UNL     1      -1.641   2.407 -22.267  0.00  0.00    -0.035 A 
ATOM      4  C   UNL     1      -1.900   2.865 -23.182  0.00  0.00    -0.033 A 
ATOM      5  C   UNL     1      -2.723   3.216 -23.503  0.00  0.00    +0.015 C 
ATOM      6  C   UNL     1      -1.179   2.638 -23.093  0.00  0.00    +0.063 C 
ATOM      7  C   UNL     1      -0.947   2.004 -21.747  0.00  0.00    +0.130 C 
ATOM      8  N   UNL     1      -1.876   1.924 -20.989  0.00  0.00    +0.230 N 
ATOM      9  H   UNL     1      -2.029   0.917 -20.933  0.00  0.00    +0.202 HD
ATOM     10  H   UNL     1      -1.602   2.423 -20.143  0.00  0.00    +0.202 HD
ATOM     11  C   UNL     1      -3.305   2.464 -21.381  0.00  0.00    +0.071 C 
ATOM     12  C   UNL     1      -3.015   3.769 -24.620  0.00  0.00    +0.086 C 
ATOM     13  C   UNL     1      -4.233   4.181 -24.841  0.00  0.00    +0.134 C 
ATOM     14  O   UNL     1      -4.527   4.738 -25.969  0.00  0.00    -0.297 OA
ATOM     15  C   UNL     1      -5.174   4.032 -23.916  0.00  0.00    +0.075 C 
ATOM     16  C   UNL     1      -4.912   3.470 -22.757  0.00  0.00    +0.017 C 
ATOM     17  C   UNL     1      -3.732   3.055 -22.507  0.00  0.00    +0.049 C 
ATOM     18  C   UNL     1      -1.044   3.067 -24.182  0.00  0.00    +0.054 A 
ATOM     19  C   UNL     1      -2.397   2.219 -21.363  0.00  0.00    +0.090 C 
ATOM     20  C   UNL     1       0.191   2.701 -24.079  0.00  0.00    +0.162 A 
ENDROOT
BRANCH   1  22
ATOM     21  C   UNL     1       2.689   2.304 -22.125  0.00  0.00    +0.277 C 
ATOM     22  O   UNL     1       1.854   1.783 -22.946  0.00  0.00    -0.491 OA
ENDBRANCH   1  22
BRANCH  20  23
ATOM     23  O   UNL     1       1.008   2.904 -25.055  0.00  0.00    -0.491 OA
ATOM     24  C   UNL     1       1.152   4.102 -25.530  0.00  0.00    +0.277 C 
ENDBRANCH  20  23
TORSDOF 2
ENDMDL
MODEL 2
REMARK VINA RESULT:    -9.802      2.001      3.199
REMARK INTER + INTRA:         -11.237
REMARK INTER:                 -11.012
REMARK INTRA:                  -0.226
REMARK UNBOUND:                -0.290
REMARK  Name = COc1cc2c(cc1OC)[C@@]13CCN[C@@H](C2)[C@H]1CCC(=O)C3                   ZINC000253504536
REMARK  4 active torsions:
REMARK  status: ('A' for Active; 'I' for Inactive)
REMARK    1  A    between atoms: C_1  and  O_2
REMARK    2  A    between atoms: O_2  and  C_3
REMARK    3  A    between atoms: C_8  and  O_9
REMARK    4  A    between atoms: O_9  and  C_10
REMARK                            x       y       z     vdW  Elec       q    Type
REMARK                         _______ _______ _______ _____ _____    ______ ____
ROOT
ATOM      1  C   UNL     1       0.120   3.212 -24.431  0.00  0.00    +0.162 A 
ATOM      2  C   UNL     1      -0.870   3.565 -25.138  0.00  0.00    +0.053 A 
ATOM      3  C   UNL     1      -2.208   3.550 -24.543  0.00  0.00    -0.035 A 
ATOM      4  C   UNL     1      -2.307   3.244 -23.538  0.00  0.00    -0.033 A 
ATOM      5  C   UNL     1      -3.068   3.164 -22.973  0.00  0.00    +0.015 C 
ATOM      6  C   UNL     1      -1.607   3.248 -23.838  0.00  0.00    +0.063 C 
ATOM      7  C   UNL     1      -1.610   3.704 -25.273  0.00  0.00    +0.130 C 
ATOM      8  N   UNL     1      -2.662   3.999 -25.773  0.00  0.00    +0.230 N 
ATOM      9  H   UNL     1      -2.559   5.002 -25.928  0.00  0.00    +0.202 HD
ATOM     10  H   UNL     1      -2.776   3.391 -26.584  0.00  0.00    +0.202 HD
ATOM     11  C   UNL     1      -4.011   3.916 -24.960  0.00  0.00    +0.071 C 
ATOM     12  C   UNL     1      -3.163   2.789 -21.752  0.00  0.00    +0.086 C 
ATOM     13  C   UNL     1      -4.333   2.758 -21.174  0.00  0.00    +0.134 C 
ATOM     14  O   UNL     1      -4.430   2.380 -19.943  0.00  0.00    -0.297 OA
ATOM     15  C   UNL     1      -5.425   3.111 -21.842  0.00  0.00    +0.075 C 
ATOM     16  C   UNL     1      -5.366   3.501 -23.096  0.00  0.00    +0.017 C 
ATOM     17  C   UNL     1      -4.240   3.544 -23.692  0.00  0.00    +0.049 C 
ATOM     18  C   UNL     1      -1.286   2.868 -22.770  0.00  0.00    +0.054 A 
ATOM     19  C   UNL     1      -3.114   3.890 -25.242  0.00  0.00    +0.090 C 
ATOM     20  C   UNL     1      -0.080   2.858 -23.233  0.00  0.00    +0.162 A 
ENDROOT
BRANCH   1  22
ATOM     21  C   UNL     1       1.864   2.212 -25.537  0.00  0.00    +0.277 C 
ATOM     22  O   UNL     1       1.373   3.188 -24.868  0.00  0.00    -0.491 OA
ENDBRANCH   1  22
BRANCH  20  23
ATOM     23  O   UNL     1       0.899   2.492 -22.478  0.00  0.00    -0.491 OA
ATOM     24  C   UNL     1       0.799   1.398 -21.788  0.00  0.00    +0.277 C 
ENDBRANCH  20  23
TORSDOF 2
ENDMDL
MODEL 3
REMARK VINA RESULT:    -9.757      1.955      5.488
REMARK INTER + INTRA:         -11.187
REMARK INTER:                 -10.973
REMARK INTRA:                  -0.215
REMARK UNBOUND:                -0.290
REMARK  Name = COc1cc2c(cc1OC)[C@@]13CCN[C@@H](C2)[C@H]1CCC(=O)C3                   ZINC000253504536
REMARK  4 active torsions:
REMARK  status: ('A' for Active; 'I' for Inactive)
REMARK    1  A    between atoms: C_1  and  O_2
REMARK    2  A    between atoms: O_2  and  C_3
REMARK    3  A    between atoms: C_8  and  O_9
REMARK    4  A    between atoms: O_9  and  C_10
REMARK                            x       y       z     vdW  Elec       q    Type
REMARK                         _______ _______ _______ _____ _____    ______ ____
ROOT
ATOM      1  C   UNL     1      -2.936   3.410 -23.725  0.00  0.00    +0.162 A 
ATOM      2  C   UNL     1      -2.063   3.539 -24.632  0.00  0.00    +0.053 A 
ATOM      3  C   UNL     1      -0.681   3.148 -24.348  0.00  0.00    -0.035 A 
ATOM      4  C   UNL     1      -0.453   2.768 -23.390  0.00  0.00    -0.033 A 
ATOM      5  C   UNL     1       0.361   2.463 -23.007  0.00  0.00    +0.015 C 
ATOM      6  C   UNL     1      -1.175   2.969 -23.528  0.00  0.00    +0.063 C 
ATOM      7  C   UNL     1      -1.359   3.492 -24.928  0.00  0.00    +0.130 C 
ATOM      8  N   UNL     1      -0.398   3.537 -25.648  0.00  0.00    +0.230 N 
ATOM      9  H   UNL     1      -0.625   2.844 -26.362  0.00  0.00    +0.202 HD
ATOM     10  H   UNL     1      -0.296   4.512 -25.931  0.00  0.00    +0.202 HD
ATOM     11  C   UNL     1       1.023   3.065 -25.153  0.00  0.00    +0.071 C 
ATOM     12  C   UNL     1       0.613   2.006 -21.838  0.00  0.00    +0.086 C 
ATOM     13  C   UNL     1       1.829   1.643 -21.533  0.00  0.00    +0.134 C 
ATOM     14  O   UNL     1       2.083   1.182 -20.353  0.00  0.00    -0.297 OA
ATOM     15  C   UNL     1       2.808   1.744 -22.425  0.00  0.00    +0.075 C 
ATOM     16  C   UNL     1       2.587   2.209 -23.634  0.00  0.00    +0.017 C 
ATOM     17  C   UNL     1       1.411   2.573 -23.967  0.00  0.00    +0.049 C 
ATOM     18  C   UNL     1      -1.350   2.621 -22.416  0.00  0.00    +0.054 A 
ATOM     19  C   UNL     1       0.112   3.285 -25.230  0.00  0.00    +0.090 C 
ATOM     20  C   UNL     1      -2.587   2.948 -22.601  0.00  0.00    +0.162 A 
ENDROOT
BRANCH   1  22
ATOM     21  C   UNL     1      -4.811   3.735 -25.009  0.00  0.00    +0.277 C 
ATOM     22  O   UNL     1      -4.216   3.733 -23.874  0.00  0.00    -0.491 OA
ENDBRANCH   1  22
BRANCH  20  23
ATOM     23  O   UNL     1      -3.443   2.800 -21.648  0.00  0.00    -0.491 OA
ATOM     24  C   UNL     1      -3.234   3.377 -20.506  0.00  0.00    +0.277 C 
ENDBRANCH  20  23
TORSDOF 2
ENDMDL
MODEL 4
REMARK VINA RESULT:    -9.526      1.254      4.503
REMARK INTER + INTRA:         -10.929
REMARK INTER:                 -10.737
REMARK INTRA:                  -0.192
REMARK UNBOUND:                -0.290
REMARK  Name = COc1cc2c(cc1OC)[C@@]13CCN[C@@H](C2)[C@H]1CCC(=O)C3                   ZINC000253504536
REMARK  4 active torsions:
REMARK  status: ('A' for Active; 'I' for Inactive)
REMARK    1  A    between atoms: C_1  and  O_2
REMARK    2  A    between atoms: O_2  and  C_3
REMARK    3  A    between atoms: C_8  and  O_9
REMARK    4  A    between atoms: O_9  and  C_10
REMARK                            x       y       z     vdW  Elec       q    Type
REMARK                         _______ _______ _______ _____ _____    ______ ____
ROOT
ATOM      1  C   UNL     1      -4.143   3.366 -22.694  0.00  0.00    +0.162 A 
ATOM      2  C   UNL     1      -3.337   2.813 -21.890  0.00  0.00    +0.053 A 
ATOM      3  C   UNL     1      -1.918   2.744 -22.244  0.00  0.00    -0.035 A 
ATOM      4  C   UNL     1      -1.608   3.160 -23.163  0.00  0.00    -0.033 A 
ATOM      5  C   UNL     1      -0.754   3.221 -23.575  0.00  0.00    +0.015 C 
ATOM      6  C   UNL     1      -2.349   3.201 -22.988  0.00  0.00    +0.063 C 
ATOM      7  C   UNL     1      -2.650   2.571 -21.655  0.00  0.00    +0.130 C 
ATOM      8  N   UNL     1      -1.740   2.093 -21.033  0.00  0.00    +0.230 N 
ATOM      9  H   UNL     1      -1.681   2.707 -20.221  0.00  0.00    +0.202 HD
ATOM     10  H   UNL     1      -1.976   1.111 -20.885  0.00  0.00    +0.202 HD
ATOM     11  C   UNL     1      -0.264   2.118 -21.588  0.00  0.00    +0.071 C 
ATOM     12  C   UNL     1      -0.402   3.732 -24.694  0.00  0.00    +0.086 C 
ATOM     13  C   UNL     1       0.851   3.698 -25.057  0.00  0.00    +0.134 C 
ATOM     14  O   UNL     1       1.206   4.214 -26.187  0.00  0.00    -0.297 OA
ATOM     15  C   UNL     1       1.765   3.137 -24.275  0.00  0.00    +0.075 C 
ATOM     16  C   UNL     1       1.442   2.602 -23.118  0.00  0.00    +0.017 C 
ATOM     17  C   UNL     1       0.227   2.617 -22.732  0.00  0.00    +0.049 C 
ATOM     18  C   UNL     1      -2.432   3.748 -24.028  0.00  0.00    +0.054 A 
ATOM     19  C   UNL     1      -1.190   2.215 -21.459  0.00  0.00    +0.090 C 
ATOM     20  C   UNL     1      -3.697   3.842 -23.777  0.00  0.00    +0.162 A 
ENDROOT
BRANCH   1  22
ATOM     21  C   UNL     1      -6.107   2.681 -21.724  0.00  0.00    +0.277 C 
ATOM     22  O   UNL     1      -5.448   3.483 -22.475  0.00  0.00    -0.491 OA
ENDBRANCH   1  22
BRANCH  20  23
ATOM     23  O   UNL     1      -4.482   4.414 -24.625  0.00  0.00    -0.491 OA
ATOM     24  C   UNL     1      -4.657   3.882 -25.795  0.00  0.00    +0.277 C 
ENDBRANCH  20  23
TORSDOF 2
ENDMDL
MODEL 5
REMARK VINA RESULT:    -9.420      2.246      5.863
REMARK INTER + INTRA:         -10.811
REMARK INTER:                 -10.670
REMARK INTRA:                  -0.140
REMARK UNBOUND:                -0.290
REMARK  Name = COc1cc2c(cc1OC)[C@@]13CCN[C@@H](C2)[C@H]1CCC(=O)C3                   ZINC000253504536
REMARK  4 active torsions:
REMARK  status: ('A' for Active; 'I' for Inactive)
REMARK    1  A    between atoms: C_1  and  O_2
REMARK    2  A    between atoms: O_2  and  C_3
REMARK    3  A    between atoms: C_8  and  O_9
REMARK    4  A    between atoms: O_9  and  C_10
REMARK                            x       y       z     vdW  Elec       q    Type
REMARK                         _______ _______ _______ _____ _____    ______ ____
ROOT
ATOM      1  C   UNL     1      -1.332   4.157 -23.368  0.00  0.00    +0.162 A 
ATOM      2  C   UNL     1      -0.326   4.888 -23.604  0.00  0.00    +0.053 A 
ATOM      3  C   UNL     1       1.013   4.363 -23.330  0.00  0.00    -0.035 A 
ATOM      4  C   UNL     1       1.099   3.385 -22.943  0.00  0.00    -0.033 A 
ATOM      5  C   UNL     1       1.857   2.865 -22.701  0.00  0.00    +0.015 C 
ATOM      6  C   UNL     1       0.398   3.649 -23.082  0.00  0.00    +0.063 C 
ATOM      7  C   UNL     1       0.421   5.051 -23.630  0.00  0.00    +0.130 C 
ATOM      8  N   UNL     1       1.487   5.584 -23.785  0.00  0.00    +0.230 N 
ATOM      9  H   UNL     1       1.545   5.670 -24.800  0.00  0.00    +0.202 HD
ATOM     10  H   UNL     1       1.468   6.436 -23.224  0.00  0.00    +0.202 HD
ATOM     11  C   UNL     1       2.834   4.845 -23.428  0.00  0.00    +0.071 C 
ATOM     12  C   UNL     1       1.937   1.677 -22.231  0.00  0.00    +0.086 C 
ATOM     13  C   UNL     1       3.107   1.160 -21.970  0.00  0.00    +0.134 C 
ATOM     14  O   UNL     1       3.187  -0.039 -21.496  0.00  0.00    -0.297 OA
ATOM     15  C   UNL     1       4.216   1.858 -22.187  0.00  0.00    +0.075 C 
ATOM     16  C   UNL     1       4.173   3.080 -22.668  0.00  0.00    +0.017 C 
ATOM     17  C   UNL     1       3.047   3.616 -22.935  0.00  0.00    +0.049 C 
ATOM     18  C   UNL     1       0.061   2.592 -22.684  0.00  0.00    +0.054 A 
ATOM     19  C   UNL     1       1.935   5.084 -23.567  0.00  0.00    +0.090 C 
ATOM     20  C   UNL     1      -1.148   2.995 -22.903  0.00  0.00    +0.162 A 
ENDROOT
BRANCH   1  22
ATOM     21  C   UNL     1      -3.130   4.549 -24.739  0.00  0.00    +0.277 C 
ATOM     22  O   UNL     1      -2.589   4.531 -23.578  0.00  0.00    -0.491 OA
ENDBRANCH   1  22
BRANCH  20  23
ATOM     23  O   UNL     1      -2.144   2.217 -22.648  0.00  0.00    -0.491 OA
ATOM     24  C   UNL     1      -2.554   2.083 -21.425  0.00  0.00    +0.277 C 
ENDBRANCH  20  23
TORSDOF 2
ENDMDL
MODEL 6
REMARK VINA RESULT:    -8.828      2.266      3.895
REMARK INTER + INTRA:         -10.149
REMARK INTER:                  -9.950
REMARK INTRA:                  -0.199
REMARK UNBOUND:                -0.290
REMARK  Name = COc1cc2c(cc1OC)[C@@]13CCN[C@@H](C2)[C@H]1CCC(=O)C3                   ZINC000253504536
REMARK  4 active torsions:
REMARK  status: ('A' for Active; 'I' for Inactive)
REMARK    1  A    between atoms: C_1  and  O_2
REMARK    2  A    between atoms: O_2  and  C_3
REMARK    3  A    between atoms: C_8  and  O_9
REMARK    4  A    between atoms: O_9  and  C_10
REMARK                            x       y       z     vdW  Elec       q    Type
REMARK                         _______ _______ _______ _____ _____    ______ ____
ROOT
ATOM      1  C   UNL     1       3.147   2.772 -23.502  0.00  0.00    +0.162 A 
ATOM      2  C   UNL     1       2.500   3.177 -24.512  0.00  0.00    +0.053 A 
ATOM      3  C   UNL     1       1.039   3.254 -24.435  0.00  0.00    -0.035 A 
ATOM      4  C   UNL     1       0.568   2.968 -23.534  0.00  0.00    -0.033 A 
ATOM      5  C   UNL     1      -0.347   2.943 -23.279  0.00  0.00    +0.015 C 
ATOM      6  C   UNL     1       1.328   2.924 -23.565  0.00  0.00    +0.063 C 
ATOM      7  C   UNL     1       1.867   3.360 -24.901  0.00  0.00    +0.130 C 
ATOM      8  N   UNL     1       1.085   3.715 -25.741  0.00  0.00    +0.230 N 
ATOM      9  H   UNL     1       1.299   4.707 -25.839  0.00  0.00    +0.202 HD
ATOM     10  H   UNL     1       1.228   3.104 -26.546  0.00  0.00    +0.202 HD
ATOM     11  C   UNL     1      -0.468   3.728 -25.464  0.00  0.00    +0.071 C 
ATOM     12  C   UNL     1      -0.896   2.591 -22.178  0.00  0.00    +0.086 C 
ATOM     13  C   UNL     1      -2.194   2.641 -22.056  0.00  0.00    +0.134 C 
ATOM     14  O   UNL     1      -2.748   2.286 -20.944  0.00  0.00    -0.297 OA
ATOM     15  C   UNL     1      -2.951   3.054 -23.065  0.00  0.00    +0.075 C 
ATOM     16  C   UNL     1      -2.423   3.423 -24.211  0.00  0.00    +0.017 C 
ATOM     17  C   UNL     1      -1.158   3.387 -24.366  0.00  0.00    +0.049 C 
ATOM     18  C   UNL     1       1.222   2.538 -22.456  0.00  0.00    +0.054 A 
ATOM     19  C   UNL     1       0.467   3.641 -25.408  0.00  0.00    +0.090 C 
ATOM     20  C   UNL     1       2.511   2.447 -22.459  0.00  0.00    +0.162 A 
ENDROOT
BRANCH   1  22
ATOM     21  C   UNL     1       5.256   3.674 -23.421  0.00  0.00    +0.277 C 
ATOM     22  O   UNL     1       4.470   2.663 -23.463  0.00  0.00    -0.491 OA
ENDBRANCH   1  22
BRANCH  20  23
ATOM     23  O   UNL     1       3.130   2.029 -21.407  0.00  0.00    -0.491 OA
ATOM     24  C   UNL     1       3.097   0.768 -21.104  0.00  0.00    +0.277 C 
ENDBRANCH  20  23
TORSDOF 2
ENDMDL
MODEL 7
REMARK VINA RESULT:    -8.644      1.469      2.268
REMARK INTER + INTRA:          -9.944
REMARK INTER:                  -9.747
REMARK INTRA:                  -0.197
REMARK UNBOUND:                -0.290
REMARK  Name = COc1cc2c(cc1OC)[C@@]13CCN[C@@H](C2)[C@H]1CCC(=O)C3                   ZINC000253504536
REMARK  4 active torsions:
REMARK  status: ('A' for Active; 'I' for Inactive)
REMARK    1  A    between atoms: C_1  and  O_2
REMARK    2  A    between atoms: O_2  and  C_3
REMARK    3  A    between atoms: C_8  and  O_9
REMARK    4  A    between atoms: O_9  and  C_10
REMARK                            x       y       z     vdW  Elec       q    Type
REMARK                         _______ _______ _______ _____ _____    ______ ____
ROOT
ATOM      1  C   UNL     1      -0.115   3.015 -24.700  0.00  0.00    +0.162 A 
ATOM      2  C   UNL     1       0.041   2.654 -23.496  0.00  0.00    +0.053 A 
ATOM      3  C   UNL     1      -1.123   2.621 -22.608  0.00  0.00    -0.035 A 
ATOM      4  C   UNL     1      -2.062   2.900 -23.001  0.00  0.00    -0.033 A 
ATOM      5  C   UNL     1      -2.925   2.948 -22.605  0.00  0.00    +0.015 C 
ATOM      6  C   UNL     1      -1.462   2.921 -23.471  0.00  0.00    +0.063 C 
ATOM      7  C   UNL     1      -0.191   2.499 -22.784  0.00  0.00    +0.130 C 
ATOM      8  N   UNL     1      -0.247   2.189 -21.624  0.00  0.00    +0.230 N 
ATOM      9  H   UNL     1      -0.030   1.193 -21.652  0.00  0.00    +0.202 HD
ATOM     10  H   UNL     1       0.388   2.813 -21.127  0.00  0.00    +0.202 HD
ATOM     11  C   UNL     1      -1.611   2.218 -20.831  0.00  0.00    +0.071 C 
ATOM     12  C   UNL     1      -4.053   3.292 -23.103  0.00  0.00    +0.086 C 
ATOM     13  C   UNL     1      -5.122   3.280 -22.355  0.00  0.00    +0.134 C 
ATOM     14  O   UNL     1      -6.260   3.627 -22.858  0.00  0.00    -0.297 OA
ATOM     15  C   UNL     1      -5.050   2.914 -21.081  0.00  0.00    +0.075 C 
ATOM     16  C   UNL     1      -3.909   2.555 -20.535  0.00  0.00    +0.017 C 
ATOM     17  C   UNL     1      -2.844   2.555 -21.236  0.00  0.00    +0.049 C 
ATOM     18  C   UNL     1      -2.257   3.285 -24.261  0.00  0.00    +0.054 A 
ATOM     19  C   UNL     1      -0.933   2.274 -21.482  0.00  0.00    +0.090 C 
ATOM     20  C   UNL     1      -1.271   3.336 -25.096  0.00  0.00    +0.162 A 
ENDROOT
BRANCH   1  22
ATOM     21  C   UNL     1       2.106   2.953 -25.277  0.00  0.00    +0.277 C 
ATOM     22  O   UNL     1       0.870   3.081 -25.589  0.00  0.00    -0.491 OA
ENDBRANCH   1  22
BRANCH  20  23
ATOM     23  O   UNL     1      -1.476   3.710 -26.313  0.00  0.00    -0.491 OA
ATOM     24  C   UNL     1      -2.654   3.566 -26.837  0.00  0.00    +0.277 C 
ENDBRANCH  20  23
TORSDOF 2
ENDMDL
MODEL 8
REMARK VINA RESULT:    -8.615      1.517      2.130
REMARK INTER + INTRA:          -9.912
REMARK INTER:                  -9.718
REMARK INTRA:                  -0.193
REMARK UNBOUND:                -0.290
REMARK  Name = COc1cc2c(cc1OC)[C@@]13CCN[C@@H](C2)[C@H]1CCC(=O)C3                   ZINC000253504536
REMARK  4 active torsions:
REMARK  status: ('A' for Active; 'I' for Inactive)
REMARK    1  A    between atoms: C_1  and  O_2
REMARK    2  A    between atoms: O_2  and  C_3
REMARK    3  A    between atoms: C_8  and  O_9
REMARK    4  A    between atoms: O_9  and  C_10
REMARK                            x       y       z     vdW  Elec       q    Type
REMARK                         _______ _______ _______ _____ _____    ______ ____
ROOT
ATOM      1  C   UNL     1       2.479   2.471 -22.262  0.00  0.00    +0.162 A 
ATOM      2  C   UNL     1       1.627   1.754 -21.661  0.00  0.00    +0.053 A 
ATOM      3  C   UNL     1       0.202   1.995 -21.900  0.00  0.00    -0.035 A 
ATOM      4  C   UNL     1      -0.072   2.764 -22.569  0.00  0.00    -0.033 A 
ATOM      5  C   UNL     1      -0.921   3.079 -22.858  0.00  0.00    +0.015 C 
ATOM      6  C   UNL     1       0.671   2.646 -22.452  0.00  0.00    +0.063 C 
ATOM      7  C   UNL     1       0.919   1.525 -21.479  0.00  0.00    +0.130 C 
ATOM      8  N   UNL     1      -0.030   0.958 -21.010  0.00  0.00    +0.230 N 
ATOM      9  H   UNL     1       0.050   0.024 -21.410  0.00  0.00    +0.202 HD
ATOM     10  H   UNL     1       0.042   1.062 -19.997  0.00  0.00    +0.202 HD
ATOM     11  C   UNL     1      -1.504   1.368 -21.395  0.00  0.00    +0.071 C 
ATOM     12  C   UNL     1      -1.229   4.016 -23.674  0.00  0.00    +0.086 C 
ATOM     13  C   UNL     1      -2.485   4.273 -23.922  0.00  0.00    +0.134 C 
ATOM     14  O   UNL     1      -2.795   5.218 -24.744  0.00  0.00    -0.297 OA
ATOM     15  C   UNL     1      -3.446   3.569 -23.334  0.00  0.00    +0.075 C 
ATOM     16  C   UNL     1      -3.168   2.599 -22.492  0.00  0.00    +0.017 C 
ATOM     17  C   UNL     1      -1.952   2.321 -22.226  0.00  0.00    +0.049 C 
ATOM     18  C   UNL     1       0.801   3.534 -23.215  0.00  0.00    +0.054 A 
ATOM     19  C   UNL     1      -0.570   1.297 -21.314  0.00  0.00    +0.090 C 
ATOM     20  C   UNL     1       2.073   3.373 -23.050  0.00  0.00    +0.162 A 
ENDROOT
BRANCH   1  22
ATOM     21  C   UNL     1       4.431   1.279 -22.455  0.00  0.00    +0.277 C 
ATOM     22  O   UNL     1       3.793   2.339 -22.121  0.00  0.00    -0.491 OA
ENDBRANCH   1  22
BRANCH  20  23
ATOM     23  O   UNL     1       2.907   4.127 -23.682  0.00  0.00    -0.491 OA
ATOM     24  C   UNL     1       3.120   5.336 -23.264  0.00  0.00    +0.277 C 
ENDBRANCH  20  23
TORSDOF 2
ENDMDL
MODEL 9
REMARK VINA RESULT:    -8.495      1.824      5.569
REMARK INTER + INTRA:          -9.778
REMARK INTER:                  -9.488
REMARK INTRA:                  -0.290
REMARK UNBOUND:                -0.290
REMARK  Name = COc1cc2c(cc1OC)[C@@]13CCN[C@@H](C2)[C@H]1CCC(=O)C3                   ZINC000253504536
REMARK  4 active torsions:
REMARK  status: ('A' for Active; 'I' for Inactive)
REMARK    1  A    between atoms: C_1  and  O_2
REMARK    2  A    between atoms: O_2  and  C_3
REMARK    3  A    between atoms: C_8  and  O_9
REMARK    4  A    between atoms: O_9  and  C_10
REMARK                            x       y       z     vdW  Elec       q    Type
REMARK                         _______ _______ _______ _____ _____    ______ ____
ROOT
ATOM      1  C   UNL     1      -0.651   2.479 -23.282  0.00  0.00    +0.162 A 
ATOM      2  C   UNL     1      -0.300   1.988 -22.169  0.00  0.00    +0.053 A 
ATOM      3  C   UNL     1       1.124   1.933 -21.835  0.00  0.00    -0.035 A 
ATOM      4  C   UNL     1       1.819   2.306 -22.536  0.00  0.00    -0.033 A 
ATOM      5  C   UNL     1       2.768   2.364 -22.518  0.00  0.00    +0.015 C 
ATOM      6  C   UNL     1       1.081   2.339 -22.719  0.00  0.00    +0.063 C 
ATOM      7  C   UNL     1       0.203   1.775 -21.634  0.00  0.00    +0.130 C 
ATOM      8  N   UNL     1       0.729   1.352 -20.640  0.00  0.00    +0.230 N 
ATOM      9  H   UNL     1       0.416   2.010 -19.926  0.00  0.00    +0.202 HD
ATOM     10  H   UNL     1       0.448   0.374 -20.558  0.00  0.00    +0.202 HD
ATOM     11  C   UNL     1       2.297   1.380 -20.464  0.00  0.00    +0.071 C 
ATOM     12  C   UNL     1       3.592   2.822 -23.383  0.00  0.00    +0.086 C 
ATOM     13  C   UNL     1       4.873   2.797 -23.135  0.00  0.00    +0.134 C 
ATOM     14  O   UNL     1       5.705   3.259 -24.008  0.00  0.00    -0.297 OA
ATOM     15  C   UNL     1       5.329   2.299 -21.991  0.00  0.00    +0.075 C 
ATOM     16  C   UNL     1       4.513   1.819 -21.079  0.00  0.00    +0.017 C 
ATOM     17  C   UNL     1       3.255   1.828 -21.288  0.00  0.00    +0.049 C 
ATOM     18  C   UNL     1       1.481   2.828 -23.714  0.00  0.00    +0.054 A 
ATOM     19  C   UNL     1       1.413   1.462 -20.776  0.00  0.00    +0.090 C 
ATOM     20  C   UNL     1       0.241   2.907 -24.070  0.00  0.00    +0.162 A 
ENDROOT
BRANCH   1  22
ATOM     21  C   UNL     1      -2.827   3.148 -22.993  0.00  0.00    +0.277 C 
ATOM     22  O   UNL     1      -1.912   2.579 -23.686  0.00  0.00    -0.491 OA
ENDBRANCH   1  22
BRANCH  20  23
ATOM     23  O   UNL     1      -0.071   3.415 -25.213  0.00  0.00    -0.491 OA
ATOM     24  C   UNL     1       0.829   4.051 -25.897  0.00  0.00    +0.277 C 
ENDBRANCH  20  23
TORSDOF 2
ENDMDL
