MODEL 1
REMARK VINA RESULT:    -9.599      0.000      0.000
REMARK INTER + INTRA:          -7.891
REMARK INTER:                 -11.854
REMARK INTRA:                   3.963
REMARK UNBOUND:                 3.952
REMARK  Name = COC1=C2Oc3c(OC)ccc4c3[C@@]23CCN(C)[C@@H](C4)C3=C[C@H]1C(C)(C)O       ZINC000100393759
REMARK  9 active torsions:
REMARK  status: ('A' for Active; 'I' for Inactive)
REMARK    1  A    between atoms: C_1  and  O_2
REMARK    2  A    between atoms: O_2  and  C_3
REMARK    3  A    between atoms: C_7  and  O_8
REMARK    4  A    between atoms: O_8  and  C_9
REMARK    5  A    between atoms: N_17  and  C_18
REMARK    6  A    between atoms: C_23  and  C_24
REMARK    7  A    between atoms: C_24  and  C_25
REMARK    8  A    between atoms: C_24  and  C_26
REMARK    9  A    between atoms: C_24  and  O_27
REMARK                            x       y       z     vdW  Elec       q    Type
REMARK                         _______ _______ _______ _____ _____    ______ ____
ROOT
ATOM      1  C   UNL     1       0.603   2.860 -24.440  0.00  0.00    +0.146 C 
ATOM      2  C   UNL     1      -0.626   3.070 -24.283  0.00  0.00    +0.159 C 
ATOM      3  O   UNL     1      -1.925   3.550 -24.900  0.00  0.00    -0.452 OA
ATOM      4  C   UNL     1      -3.099   3.491 -23.959  0.00  0.00    +0.174 A 
ATOM      5  C   UNL     1      -4.344   3.704 -23.799  0.00  0.00    +0.162 A 
ATOM      6  C   UNL     1      -4.884   3.450 -22.676  0.00  0.00    +0.050 A 
ATOM      7  C   UNL     1      -4.199   2.992 -21.728  0.00  0.00    +0.008 A 
ATOM      8  C   UNL     1      -2.968   2.783 -21.892  0.00  0.00    -0.034 A 
ATOM      9  C   UNL     1      -2.264   2.315 -20.927  0.00  0.00    +0.094 C 
ATOM     10  C   UNL     1      -1.034   2.106 -21.088  0.00  0.00    +0.096 C 
ATOM     11  C   UNL     1      -0.492   2.359 -22.209  0.00  0.00    -0.007 C 
ATOM     12  C   UNL     1       0.751   2.147 -22.372  0.00  0.00    -0.007 C 
ATOM     13  N   UNL     1       0.369   1.832 -21.167  0.00  0.00    +0.239 N 
ATOM     14  H   UNL     1       0.899   1.460 -20.379  0.00  0.00    +0.204 HD
ATOM     15  C   UNL     1       1.005   1.374 -20.186  0.00  0.00    +0.191 C 
ATOM     16  C   UNL     1       1.006   2.103 -22.404  0.00  0.00    +0.133 C 
ATOM     17  C   UNL     1       0.206   2.620 -23.455  0.00  0.00    +0.075 C 
ATOM     18  C   UNL     1      -2.409   3.028 -22.999  0.00  0.00    +0.020 A 
ATOM     19  C   UNL     1      -1.181   2.818 -23.156  0.00  0.00    +0.091 C 
ATOM     20  C   UNL     1       1.293   2.396 -23.479  0.00  0.00    +0.112 C 
ENDROOT
BRANCH  20  21
ATOM     21  C   UNL     1       2.525   2.185 -23.636  0.00  0.00    +0.074 C 
ATOM     22  C   UNL     1       3.363   3.050 -23.277  0.00  0.00    +0.042 C 
ATOM     23  C   UNL     1       3.462   1.441 -24.026  0.00  0.00    +0.042 C 
BRANCH  21  24
ATOM     24  O   UNL     1       2.268   1.063 -24.143  0.00  0.00    -0.388 OA
ATOM     25  H   UNL     1       1.438   0.723 -23.774  0.00  0.00    +0.210 HD
ENDBRANCH  21  24
ENDBRANCH  20  21
BRANCH   1  27
ATOM     26  C   UNL     1       1.172   4.286 -25.987  0.00  0.00    +0.276 C 
ATOM     27  O   UNL     1       1.149   3.107 -25.547  0.00  0.00    -0.495 OA
ENDBRANCH   1  27
BRANCH   5  28
ATOM     28  O   UNL     1      -5.035   4.163 -24.745  0.00  0.00    -0.491 OA
ATOM     29  C   UNL     1      -5.193   3.488 -25.793  0.00  0.00    +0.277 C 
ENDBRANCH   5  28
TORSDOF 4
ENDMDL
MODEL 2
REMARK VINA RESULT:    -9.502      1.638      3.097
REMARK INTER + INTRA:          -7.772
REMARK INTER:                 -11.787
REMARK INTRA:                   4.015
REMARK UNBOUND:                 3.952
REMARK  Name = COC1=C2Oc3c(OC)ccc4c3[C@@]23CCN(C)[C@@H](C4)C3=C[C@H]1C(C)(C)O       ZINC000100393759
REMARK  9 active torsions:
REMARK  status: ('A' for Active; 'I' for Inactive)
REMARK    1  A    between atoms: C_1  and  O_2
REMARK    2  A    between atoms: O_2  and  C_3
REMARK    3  A    between atoms: C_7  and  O_8
REMARK    4  A    between atoms: O_8  and  C_9
REMARK    5  A    between atoms: N_17  and  C_18
REMARK    6  A    between atoms: C_23  and  C_24
REMARK    7  A    between atoms: C_24  and  C_25
REMARK    8  A    between atoms: C_24  and  C_26
REMARK    9  A    between atoms: C_24  and  O_27
REMARK                            x       y       z     vdW  Elec       q    Type
REMARK                         _______ _______ _______ _____ _____    ______ ____
ROOT
ATOM      1  C   UNL     1       0.340   1.770 -22.107  0.00  0.00    +0.146 C 
ATOM      2  C   UNL     1      -0.882   2.058 -22.141  0.00  0.00    +0.159 C 
ATOM      3  O   UNL     1      -2.238   1.939 -21.472  0.00  0.00    -0.452 OA
ATOM      4  C   UNL     1      -3.343   2.642 -22.216  0.00  0.00    +0.174 A 
ATOM      5  C   UNL     1      -4.582   2.934 -22.251  0.00  0.00    +0.162 A 
ATOM      6  C   UNL     1      -5.034   3.630 -23.215  0.00  0.00    +0.050 A 
ATOM      7  C   UNL     1      -4.269   4.029 -24.127  0.00  0.00    +0.008 A 
ATOM      8  C   UNL     1      -3.045   3.737 -24.088  0.00  0.00    -0.034 A 
ATOM      9  C   UNL     1      -2.259   4.142 -25.018  0.00  0.00    +0.094 C 
ATOM     10  C   UNL     1      -1.036   3.852 -24.980  0.00  0.00    +0.096 C 
ATOM     11  C   UNL     1      -0.581   3.156 -24.019  0.00  0.00    -0.007 C 
ATOM     12  C   UNL     1       0.655   2.863 -23.981  0.00  0.00    -0.007 C 
ATOM     13  N   UNL     1       0.368   3.577 -25.032  0.00  0.00    +0.239 N 
ATOM     14  H   UNL     1       0.964   3.915 -25.788  0.00  0.00    +0.204 HD
ATOM     15  C   UNL     1       1.087   4.002 -25.971  0.00  0.00    +0.191 C 
ATOM     16  C   UNL     1       0.909   2.803 -23.974  0.00  0.00    +0.133 C 
ATOM     17  C   UNL     1       0.021   2.368 -22.959  0.00  0.00    +0.075 C 
ATOM     18  C   UNL     1      -2.572   3.047 -23.140  0.00  0.00    +0.020 A 
ATOM     19  C   UNL     1      -1.350   2.759 -23.106  0.00  0.00    +0.091 C 
ATOM     20  C   UNL     1       1.112   2.175 -23.032  0.00  0.00    +0.112 C 
ENDROOT
BRANCH  20  21
ATOM     21  C   UNL     1       2.337   1.886 -22.998  0.00  0.00    +0.074 C 
ATOM     22  C   UNL     1       3.166   2.710 -22.535  0.00  0.00    +0.042 C 
ATOM     23  C   UNL     1       3.273   1.077 -23.227  0.00  0.00    +0.042 C 
BRANCH  21  24
ATOM     24  O   UNL     1       2.088   0.766 -23.514  0.00  0.00    -0.388 OA
ATOM     25  H   UNL     1       2.904   0.245 -23.565  0.00  0.00    +0.210 HD
ENDBRANCH  21  24
ENDBRANCH  20  21
BRANCH   1  27
ATOM     26  C   UNL     1       0.831   1.556 -19.994  0.00  0.00    +0.276 C 
ATOM     27  O   UNL     1       0.800   1.081 -21.158  0.00  0.00    -0.495 OA
ENDBRANCH   1  27
BRANCH   5  28
ATOM     28  O   UNL     1      -5.351   2.537 -21.340  0.00  0.00    -0.491 OA
ATOM     29  C   UNL     1      -6.595   2.547 -21.518  0.00  0.00    +0.277 C 
ENDBRANCH   5  28
TORSDOF 4
ENDMDL
MODEL 3
REMARK VINA RESULT:    -8.686      1.332      5.389
REMARK INTER + INTRA:          -6.765
REMARK INTER:                 -10.852
REMARK INTRA:                   4.087
REMARK UNBOUND:                 3.952
REMARK  Name = COC1=C2Oc3c(OC)ccc4c3[C@@]23CCN(C)[C@@H](C4)C3=C[C@H]1C(C)(C)O       ZINC000100393759
REMARK  9 active torsions:
REMARK  status: ('A' for Active; 'I' for Inactive)
REMARK    1  A    between atoms: C_1  and  O_2
REMARK    2  A    between atoms: O_2  and  C_3
REMARK    3  A    between atoms: C_7  and  O_8
REMARK    4  A    between atoms: O_8  and  C_9
REMARK    5  A    between atoms: N_17  and  C_18
REMARK    6  A    between atoms: C_23  and  C_24
REMARK    7  A    between atoms: C_24  and  C_25
REMARK    8  A    between atoms: C_24  and  C_26
REMARK    9  A    between atoms: C_24  and  O_27
REMARK                            x       y       z     vdW  Elec       q    Type
REMARK                         _______ _______ _______ _____ _____    ______ ____
ROOT
ATOM      1  C   UNL     1      -2.450   3.655 -25.050  0.00  0.00    +0.146 C 
ATOM      2  C   UNL     1      -1.322   3.240 -24.684  0.00  0.00    +0.159 C 
ATOM      3  O   UNL     1       0.135   3.030 -25.044  0.00  0.00    -0.452 OA
ATOM      4  C   UNL     1       0.947   2.402 -23.941  0.00  0.00    +0.174 A 
ATOM      5  C   UNL     1       2.089   1.981 -23.570  0.00  0.00    +0.162 A 
ATOM      6  C   UNL     1       2.228   1.491 -22.404  0.00  0.00    +0.050 A 
ATOM      7  C   UNL     1       1.248   1.420 -21.621  0.00  0.00    +0.008 A 
ATOM      8  C   UNL     1       0.121   1.838 -21.993  0.00  0.00    -0.034 A 
ATOM      9  C   UNL     1      -0.883   1.768 -21.197  0.00  0.00    +0.094 C 
ATOM     10  C   UNL     1      -2.010   2.185 -21.567  0.00  0.00    +0.096 C 
ATOM     11  C   UNL     1      -2.153   2.675 -22.731  0.00  0.00    -0.007 C 
ATOM     12  C   UNL     1      -3.292   3.096 -23.104  0.00  0.00    -0.007 C 
ATOM     13  N   UNL     1      -3.333   2.630 -21.889  0.00  0.00    +0.239 N 
ATOM     14  H   UNL     1      -4.109   2.559 -21.230  0.00  0.00    +0.204 HD
ATOM     15  C   UNL     1      -4.276   2.535 -21.065  0.00  0.00    +0.191 C 
ATOM     16  C   UNL     1      -3.527   3.182 -23.180  0.00  0.00    +0.133 C 
ATOM     17  C   UNL     1      -2.402   3.249 -24.041  0.00  0.00    +0.075 C 
ATOM     18  C   UNL     1      -0.042   2.329 -23.147  0.00  0.00    +0.020 A 
ATOM     19  C   UNL     1      -1.169   2.744 -23.512  0.00  0.00    +0.091 C 
ATOM     20  C   UNL     1      -3.439   3.582 -24.255  0.00  0.00    +0.112 C 
ENDROOT
BRANCH  20  21
ATOM     21  C   UNL     1      -4.570   3.998 -24.621  0.00  0.00    +0.074 C 
ATOM     22  C   UNL     1      -5.424   3.191 -25.069  0.00  0.00    +0.042 C 
ATOM     23  C   UNL     1      -5.382   4.946 -24.786  0.00  0.00    +0.042 C 
BRANCH  21  24
ATOM     24  O   UNL     1      -4.237   5.172 -24.316  0.00  0.00    -0.388 OA
ATOM     25  H   UNL     1      -4.414   5.325 -23.375  0.00  0.00    +0.210 HD
ENDBRANCH  21  24
ENDBRANCH  20  21
BRANCH   1  27
ATOM     26  C   UNL     1      -2.584   3.390 -27.209  0.00  0.00    +0.276 C 
ATOM     27  O   UNL     1      -2.600   4.142 -26.201  0.00  0.00    -0.495 OA
ENDBRANCH   1  27
BRANCH   5  28
ATOM     28  O   UNL     1       3.073   2.049 -24.350  0.00  0.00    -0.491 OA
ATOM     29  C   UNL     1       4.170   2.507 -23.942  0.00  0.00    +0.277 C 
ENDBRANCH   5  28
TORSDOF 4
ENDMDL
MODEL 4
REMARK VINA RESULT:    -8.628      1.427      5.315
REMARK INTER + INTRA:          -6.694
REMARK INTER:                 -10.654
REMARK INTRA:                   3.961
REMARK UNBOUND:                 3.952
REMARK  Name = COC1=C2Oc3c(OC)ccc4c3[C@@]23CCN(C)[C@@H](C4)C3=C[C@H]1C(C)(C)O       ZINC000100393759
REMARK  9 active torsions:
REMARK  status: ('A' for Active; 'I' for Inactive)
REMARK    1  A    between atoms: C_1  and  O_2
REMARK    2  A    between atoms: O_2  and  C_3
REMARK    3  A    between atoms: C_7  and  O_8
REMARK    4  A    between atoms: O_8  and  C_9
REMARK    5  A    between atoms: N_17  and  C_18
REMARK    6  A    between atoms: C_23  and  C_24
REMARK    7  A    between atoms: C_24  and  C_25
REMARK    8  A    between atoms: C_24  and  C_26
REMARK    9  A    between atoms: C_24  and  O_27
REMARK                            x       y       z     vdW  Elec       q    Type
REMARK                         _______ _______ _______ _____ _____    ______ ____
ROOT
ATOM      1  C   UNL     1      -0.251   3.188 -24.649  0.00  0.00    +0.146 C 
ATOM      2  C   UNL     1       0.770   2.811 -24.021  0.00  0.00    +0.159 C 
ATOM      3  O   UNL     1       2.276   2.632 -24.028  0.00  0.00    -0.452 OA
ATOM      4  C   UNL     1       2.822   2.050 -22.751  0.00  0.00    +0.174 A 
ATOM      5  C   UNL     1       3.856   1.667 -22.114  0.00  0.00    +0.162 A 
ATOM      6  C   UNL     1       3.730   1.206 -20.935  0.00  0.00    +0.050 A 
ATOM      7  C   UNL     1       2.598   1.125 -20.399  0.00  0.00    +0.008 A 
ATOM      8  C   UNL     1       1.578   1.505 -21.033  0.00  0.00    -0.034 A 
ATOM      9  C   UNL     1       0.419   1.425 -20.489  0.00  0.00    +0.094 C 
ATOM     10  C   UNL     1      -0.600   1.804 -21.121  0.00  0.00    +0.096 C 
ATOM     11  C   UNL     1      -0.479   2.265 -22.299  0.00  0.00    -0.007 C 
ATOM     12  C   UNL     1      -1.509   2.648 -22.937  0.00  0.00    -0.007 C 
ATOM     13  N   UNL     1      -1.822   2.206 -21.751  0.00  0.00    +0.239 N 
ATOM     14  H   UNL     1      -2.727   2.128 -21.289  0.00  0.00    +0.204 HD
ATOM     15  C   UNL     1      -2.928   2.103 -21.166  0.00  0.00    +0.191 C 
ATOM     16  C   UNL     1      -1.722   2.726 -23.067  0.00  0.00    +0.133 C 
ATOM     17  C   UNL     1      -0.429   2.804 -23.646  0.00  0.00    +0.075 C 
ATOM     18  C   UNL     1       1.678   1.967 -22.205  0.00  0.00    +0.020 A 
ATOM     19  C   UNL     1       0.657   2.344 -22.833  0.00  0.00    +0.091 C 
ATOM     20  C   UNL     1      -1.395   3.105 -24.103  0.00  0.00    +0.112 C 
ENDROOT
BRANCH  20  21
ATOM     21  C   UNL     1      -2.419   3.483 -24.732  0.00  0.00    +0.074 C 
ATOM     22  C   UNL     1      -2.848   4.657 -24.590  0.00  0.00    +0.042 C 
ATOM     23  C   UNL     1      -3.352   3.242 -25.540  0.00  0.00    +0.042 C 
BRANCH  21  24
ATOM     24  O   UNL     1      -2.515   2.346 -25.260  0.00  0.00    -0.388 OA
ATOM     25  H   UNL     1      -1.774   1.791 -24.970  0.00  0.00    +0.210 HD
ENDBRANCH  21  24
ENDBRANCH  20  21
BRANCH   1  27
ATOM     26  C   UNL     1       0.893   4.285 -26.145  0.00  0.00    +0.276 C 
ATOM     27  O   UNL     1      -0.140   3.647 -25.816  0.00  0.00    -0.495 OA
ENDBRANCH   1  27
BRANCH   5  28
ATOM     28  O   UNL     1       4.992   1.745 -22.646  0.00  0.00    -0.491 OA
ATOM     29  C   UNL     1       5.818   2.603 -22.245  0.00  0.00    +0.277 C 
ENDBRANCH   5  28
TORSDOF 4
ENDMDL
MODEL 5
REMARK VINA RESULT:    -7.991      2.336      3.649
REMARK INTER + INTRA:          -5.907
REMARK INTER:                  -9.885
REMARK INTRA:                   3.977
REMARK UNBOUND:                 3.952
REMARK  Name = COC1=C2Oc3c(OC)ccc4c3[C@@]23CCN(C)[C@@H](C4)C3=C[C@H]1C(C)(C)O       ZINC000100393759
REMARK  9 active torsions:
REMARK  status: ('A' for Active; 'I' for Inactive)
REMARK    1  A    between atoms: C_1  and  O_2
REMARK    2  A    between atoms: O_2  and  C_3
REMARK    3  A    between atoms: C_7  and  O_8
REMARK    4  A    between atoms: O_8  and  C_9
REMARK    5  A    between atoms: N_17  and  C_18
REMARK    6  A    between atoms: C_23  and  C_24
REMARK    7  A    between atoms: C_24  and  C_25
REMARK    8  A    between atoms: C_24  and  C_26
REMARK    9  A    between atoms: C_24  and  O_27
REMARK                            x       y       z     vdW  Elec       q    Type
REMARK                         _______ _______ _______ _____ _____    ______ ____
ROOT
ATOM      1  C   UNL     1       3.981   4.174 -22.889  0.00  0.00    +0.146 C 
ATOM      2  C   UNL     1       2.732   4.100 -22.995  0.00  0.00    +0.159 C 
ATOM      3  O   UNL     1       1.451   4.773 -23.449  0.00  0.00    -0.452 OA
ATOM      4  C   UNL     1       0.215   3.947 -23.205  0.00  0.00    +0.174 A 
ATOM      5  C   UNL     1      -1.052   3.873 -23.312  0.00  0.00    +0.162 A 
ATOM      6  C   UNL     1      -1.655   2.833 -22.897  0.00  0.00    +0.050 A 
ATOM      7  C   UNL     1      -1.012   1.884 -22.385  0.00  0.00    +0.008 A 
ATOM      8  C   UNL     1       0.240   1.962 -22.281  0.00  0.00    -0.034 A 
ATOM      9  C   UNL     1       0.902   0.995 -21.759  0.00  0.00    +0.094 C 
ATOM     10  C   UNL     1       2.153   1.072 -21.655  0.00  0.00    +0.096 C 
ATOM     11  C   UNL     1       2.759   2.109 -22.068  0.00  0.00    -0.007 C 
ATOM     12  C   UNL     1       4.023   2.187 -21.963  0.00  0.00    -0.007 C 
ATOM     13  N   UNL     1       3.575   1.058 -21.489  0.00  0.00    +0.239 N 
ATOM     14  H   UNL     1       4.070   0.271 -21.069  0.00  0.00    +0.204 HD
ATOM     15  C   UNL     1       4.167   0.080 -20.970  0.00  0.00    +0.191 C 
ATOM     16  C   UNL     1       4.283   2.201 -21.940  0.00  0.00    +0.133 C 
ATOM     17  C   UNL     1       3.529   3.257 -22.514  0.00  0.00    +0.075 C 
ATOM     18  C   UNL     1       0.862   2.986 -22.686  0.00  0.00    +0.020 A 
ATOM     19  C   UNL     1       2.111   3.058 -22.580  0.00  0.00    +0.091 C 
ATOM     20  C   UNL     1       4.629   3.211 -22.370  0.00  0.00    +0.112 C 
ENDROOT
BRANCH  20  21
ATOM     21  C   UNL     1       5.882   3.283 -22.263  0.00  0.00    +0.074 C 
ATOM     22  C   UNL     1       6.402   3.651 -21.179  0.00  0.00    +0.042 C 
ATOM     23  C   UNL     1       7.028   3.155 -22.767  0.00  0.00    +0.042 C 
BRANCH  21  24
ATOM     24  O   UNL     1       6.006   2.901 -23.455  0.00  0.00    -0.388 OA
ATOM     25  H   UNL     1       5.538   3.515 -24.042  0.00  0.00    +0.210 HD
ENDBRANCH  21  24
ENDBRANCH  20  21
BRANCH   1  27
ATOM     26  C   UNL     1       4.402   6.306 -22.732  0.00  0.00    +0.276 C 
ATOM     27  O   UNL     1       4.590   5.197 -23.295  0.00  0.00    -0.495 OA
ENDBRANCH   1  27
BRANCH   5  28
ATOM     28  O   UNL     1      -1.700   4.820 -23.824  0.00  0.00    -0.491 OA
ATOM     29  C   UNL     1      -2.721   4.583 -24.517  0.00  0.00    +0.277 C 
ENDBRANCH   5  28
TORSDOF 4
ENDMDL
MODEL 6
REMARK VINA RESULT:    -7.827      1.853      5.767
REMARK INTER + INTRA:          -5.706
REMARK INTER:                  -9.646
REMARK INTRA:                   3.941
REMARK UNBOUND:                 3.952
REMARK  Name = COC1=C2Oc3c(OC)ccc4c3[C@@]23CCN(C)[C@@H](C4)C3=C[C@H]1C(C)(C)O       ZINC000100393759
REMARK  9 active torsions:
REMARK  status: ('A' for Active; 'I' for Inactive)
REMARK    1  A    between atoms: C_1  and  O_2
REMARK    2  A    between atoms: O_2  and  C_3
REMARK    3  A    between atoms: C_7  and  O_8
REMARK    4  A    between atoms: O_8  and  C_9
REMARK    5  A    between atoms: N_17  and  C_18
REMARK    6  A    between atoms: C_23  and  C_24
REMARK    7  A    between atoms: C_24  and  C_25
REMARK    8  A    between atoms: C_24  and  C_26
REMARK    9  A    between atoms: C_24  and  O_27
REMARK                            x       y       z     vdW  Elec       q    Type
REMARK                         _______ _______ _______ _____ _____    ______ ____
ROOT
ATOM      1  C   UNL     1       0.607   3.629 -24.124  0.00  0.00    +0.146 C 
ATOM      2  C   UNL     1       1.804   3.498 -23.763  0.00  0.00    +0.159 C 
ATOM      3  O   UNL     1       3.256   3.852 -24.018  0.00  0.00    -0.452 OA
ATOM      4  C   UNL     1       4.211   3.232 -23.032  0.00  0.00    +0.174 A 
ATOM      5  C   UNL     1       5.423   3.099 -22.666  0.00  0.00    +0.162 A 
ATOM      6  C   UNL     1       5.697   2.380 -21.652  0.00  0.00    +0.050 A 
ATOM      7  C   UNL     1       4.782   1.804 -21.014  0.00  0.00    +0.008 A 
ATOM      8  C   UNL     1       3.585   1.938 -21.380  0.00  0.00    -0.034 A 
ATOM      9  C   UNL     1       2.646   1.351 -20.731  0.00  0.00    +0.094 C 
ATOM     10  C   UNL     1       1.450   1.485 -21.095  0.00  0.00    +0.096 C 
ATOM     11  C   UNL     1       1.173   2.202 -22.107  0.00  0.00    -0.007 C 
ATOM     12  C   UNL     1      -0.036   2.336 -22.474  0.00  0.00    -0.007 C 
ATOM     13  N   UNL     1       0.059   1.570 -21.425  0.00  0.00    +0.239 N 
ATOM     14  H   UNL     1      -0.661   1.090 -20.886  0.00  0.00    +0.204 HD
ATOM     15  C   UNL     1      -0.814   0.971 -20.749  0.00  0.00    +0.191 C 
ATOM     16  C   UNL     1      -0.285   2.363 -22.549  0.00  0.00    +0.133 C 
ATOM     17  C   UNL     1       0.770   3.001 -23.250  0.00  0.00    +0.075 C 
ATOM     18  C   UNL     1       3.288   2.647 -22.384  0.00  0.00    +0.020 A 
ATOM     19  C   UNL     1       2.092   2.777 -22.744  0.00  0.00    +0.091 C 
ATOM     20  C   UNL     1      -0.316   3.044 -23.475  0.00  0.00    +0.112 C 
ENDROOT
BRANCH  20  21
ATOM     21  C   UNL     1      -1.515   3.175 -23.836  0.00  0.00    +0.074 C 
ATOM     22  C   UNL     1      -2.180   4.174 -23.463  0.00  0.00    +0.042 C 
ATOM     23  C   UNL     1      -2.516   2.748 -24.469  0.00  0.00    +0.042 C 
BRANCH  21  24
ATOM     24  O   UNL     1      -1.441   2.095 -24.477  0.00  0.00    -0.388 OA
ATOM     25  H   UNL     1      -2.142   1.494 -24.181  0.00  0.00    +0.210 HD
ENDBRANCH  21  24
ENDBRANCH  20  21
BRANCH   1  27
ATOM     26  C   UNL     1       0.960   4.189 -26.201  0.00  0.00    +0.276 C 
ATOM     27  O   UNL     1       0.324   4.337 -25.125  0.00  0.00    -0.495 OA
ENDBRANCH   1  27
BRANCH   5  28
ATOM     28  O   UNL     1       6.343   3.674 -23.302  0.00  0.00    -0.491 OA
ATOM     29  C   UNL     1       6.540   4.905 -23.148  0.00  0.00    +0.277 C 
ENDBRANCH   5  28
TORSDOF 4
ENDMDL
MODEL 7
REMARK VINA RESULT:    -7.633      2.303      3.896
REMARK INTER + INTRA:          -5.466
REMARK INTER:                  -9.369
REMARK INTRA:                   3.903
REMARK UNBOUND:                 3.952
REMARK  Name = COC1=C2Oc3c(OC)ccc4c3[C@@]23CCN(C)[C@@H](C4)C3=C[C@H]1C(C)(C)O       ZINC000100393759
REMARK  9 active torsions:
REMARK  status: ('A' for Active; 'I' for Inactive)
REMARK    1  A    between atoms: C_1  and  O_2
REMARK    2  A    between atoms: O_2  and  C_3
REMARK    3  A    between atoms: C_7  and  O_8
REMARK    4  A    between atoms: O_8  and  C_9
REMARK    5  A    between atoms: N_17  and  C_18
REMARK    6  A    between atoms: C_23  and  C_24
REMARK    7  A    between atoms: C_24  and  C_25
REMARK    8  A    between atoms: C_24  and  C_26
REMARK    9  A    between atoms: C_24  and  O_27
REMARK                            x       y       z     vdW  Elec       q    Type
REMARK                         _______ _______ _______ _____ _____    ______ ____
ROOT
ATOM      1  C   UNL     1       3.371   2.087 -23.203  0.00  0.00    +0.146 C 
ATOM      2  C   UNL     1       2.159   2.341 -23.416  0.00  0.00    +0.159 C 
ATOM      3  O   UNL     1       0.783   1.797 -23.744  0.00  0.00    -0.452 OA
ATOM      4  C   UNL     1      -0.280   2.860 -23.843  0.00  0.00    +0.174 A 
ATOM      5  C   UNL     1      -1.508   3.118 -24.058  0.00  0.00    +0.162 A 
ATOM      6  C   UNL     1      -1.912   4.323 -24.012  0.00  0.00    +0.050 A 
ATOM      7  C   UNL     1      -1.111   5.255 -23.756  0.00  0.00    +0.008 A 
ATOM      8  C   UNL     1       0.102   4.995 -23.544  0.00  0.00    -0.034 A 
ATOM      9  C   UNL     1       0.925   5.944 -23.282  0.00  0.00    +0.094 C 
ATOM     10  C   UNL     1       2.138   5.685 -23.070  0.00  0.00    +0.096 C 
ATOM     11  C   UNL     1       2.545   4.483 -23.115  0.00  0.00    -0.007 C 
ATOM     12  C   UNL     1       3.770   4.222 -22.901  0.00  0.00    -0.007 C 
ATOM     13  N   UNL     1       3.534   5.500 -22.813  0.00  0.00    +0.239 N 
ATOM     14  H   UNL     1       4.161   6.279 -22.608  0.00  0.00    +0.204 HD
ATOM     15  C   UNL     1       4.291   6.471 -22.562  0.00  0.00    +0.191 C 
ATOM     16  C   UNL     1       4.023   4.170 -22.856  0.00  0.00    +0.133 C 
ATOM     17  C   UNL     1       3.093   3.139 -23.148  0.00  0.00    +0.075 C 
ATOM     18  C   UNL     1       0.528   3.805 -23.584  0.00  0.00    +0.020 A 
ATOM     19  C   UNL     1       1.739   3.551 -23.372  0.00  0.00    +0.091 C 
ATOM     20  C   UNL     1       4.180   3.033 -22.944  0.00  0.00    +0.112 C 
ENDROOT
BRANCH  20  21
ATOM     21  C   UNL     1       5.395   2.779 -22.731  0.00  0.00    +0.074 C 
ATOM     22  C   UNL     1       5.807   2.614 -21.555  0.00  0.00    +0.042 C 
ATOM     23  C   UNL     1       6.559   2.581 -23.165  0.00  0.00    +0.042 C 
BRANCH  21  24
ATOM     24  O   UNL     1       5.621   2.823 -23.967  0.00  0.00    -0.388 OA
ATOM     25  H   UNL     1       5.580   1.927 -24.336  0.00  0.00    +0.210 HD
ENDBRANCH  21  24
ENDBRANCH  20  21
BRANCH   1  27
ATOM     26  C   UNL     1       3.204   0.007 -22.574  0.00  0.00    +0.276 C 
ATOM     27  O   UNL     1       3.784   0.899 -23.246  0.00  0.00    -0.495 OA
ENDBRANCH   1  27
BRANCH   5  28
ATOM     28  O   UNL     1      -2.314   2.188 -24.315  0.00  0.00    -0.491 OA
ATOM     29  C   UNL     1      -3.261   2.379 -25.119  0.00  0.00    +0.277 C 
ENDBRANCH   5  28
TORSDOF 4
ENDMDL
MODEL 8
REMARK VINA RESULT:    -7.629      3.056      6.626
REMARK INTER + INTRA:          -5.461
REMARK INTER:                  -9.804
REMARK INTRA:                   4.343
REMARK UNBOUND:                 3.952
REMARK  Name = COC1=C2Oc3c(OC)ccc4c3[C@@]23CCN(C)[C@@H](C4)C3=C[C@H]1C(C)(C)O       ZINC000100393759
REMARK  9 active torsions:
REMARK  status: ('A' for Active; 'I' for Inactive)
REMARK    1  A    between atoms: C_1  and  O_2
REMARK    2  A    between atoms: O_2  and  C_3
REMARK    3  A    between atoms: C_7  and  O_8
REMARK    4  A    between atoms: O_8  and  C_9
REMARK    5  A    between atoms: N_17  and  C_18
REMARK    6  A    between atoms: C_23  and  C_24
REMARK    7  A    between atoms: C_24  and  C_25
REMARK    8  A    between atoms: C_24  and  C_26
REMARK    9  A    between atoms: C_24  and  O_27
REMARK                            x       y       z     vdW  Elec       q    Type
REMARK                         _______ _______ _______ _____ _____    ______ ____
ROOT
ATOM      1  C   UNL     1       1.034   4.795 -23.652  0.00  0.00    +0.146 C 
ATOM      2  C   UNL     1       2.140   5.249 -23.264  0.00  0.00    +0.159 C 
ATOM      3  O   UNL     1       2.894   6.414 -22.655  0.00  0.00    -0.452 OA
ATOM      4  C   UNL     1       4.369   6.158 -22.486  0.00  0.00    +0.174 A 
ATOM      5  C   UNL     1       5.490   6.617 -22.093  0.00  0.00    +0.162 A 
ATOM      6  C   UNL     1       6.532   5.895 -22.191  0.00  0.00    +0.050 A 
ATOM      7  C   UNL     1       6.462   4.736 -22.671  0.00  0.00    +0.008 A 
ATOM      8  C   UNL     1       5.352   4.287 -23.058  0.00  0.00    -0.034 A 
ATOM      9  C   UNL     1       5.276   3.104 -23.549  0.00  0.00    +0.094 C 
ATOM     10  C   UNL     1       4.167   2.653 -23.936  0.00  0.00    +0.096 C 
ATOM     11  C   UNL     1       3.124   3.371 -23.839  0.00  0.00    -0.007 C 
ATOM     12  C   UNL     1       2.004   2.915 -24.230  0.00  0.00    -0.007 C 
ATOM     13  N   UNL     1       2.958   2.045 -24.404  0.00  0.00    +0.239 N 
ATOM     14  H   UNL     1       2.934   1.101 -24.789  0.00  0.00    +0.204 HD
ATOM     15  C   UNL     1       2.947   0.881 -24.876  0.00  0.00    +0.191 C 
ATOM     16  C   UNL     1       1.774   2.821 -24.311  0.00  0.00    +0.133 C 
ATOM     17  C   UNL     1       1.885   4.125 -23.765  0.00  0.00    +0.075 C 
ATOM     18  C   UNL     1       4.302   4.986 -22.970  0.00  0.00    +0.020 A 
ATOM     19  C   UNL     1       3.197   4.531 -23.358  0.00  0.00    +0.091 C 
ATOM     20  C   UNL     1       0.967   3.622 -24.137  0.00  0.00    +0.112 C 
ENDROOT
BRANCH  20  21
ATOM     21  C   UNL     1      -0.140   3.166 -24.525  0.00  0.00    +0.074 C 
ATOM     22  C   UNL     1      -0.815   2.422 -23.770  0.00  0.00    +0.042 C 
ATOM     23  C   UNL     1      -1.030   3.071 -25.411  0.00  0.00    +0.042 C 
BRANCH  21  24
ATOM     24  O   UNL     1      -0.001   3.764 -25.624  0.00  0.00    -0.388 OA
ATOM     25  H   UNL     1      -0.867   4.064 -25.940  0.00  0.00    +0.210 HD
ENDBRANCH  21  24
ENDBRANCH  20  21
BRANCH   1  27
ATOM     26  C   UNL     1      -0.615   5.581 -22.462  0.00  0.00    +0.276 C 
ATOM     27  O   UNL     1      -0.005   5.500 -23.559  0.00  0.00    -0.495 OA
ENDBRANCH   1  27
BRANCH   5  28
ATOM     28  O   UNL     1       5.564   7.776 -21.612  0.00  0.00    -0.491 OA
ATOM     29  C   UNL     1       5.004   8.041 -20.519  0.00  0.00    +0.277 C 
ENDBRANCH   5  28
TORSDOF 4
ENDMDL
MODEL 9
REMARK VINA RESULT:    -6.974      4.055      7.241
REMARK INTER + INTRA:          -4.653
REMARK INTER:                  -8.605
REMARK INTRA:                   3.952
REMARK UNBOUND:                 3.952
REMARK  Name = COC1=C2Oc3c(OC)ccc4c3[C@@]23CCN(C)[C@@H](C4)C3=C[C@H]1C(C)(C)O       ZINC000100393759
REMARK  9 active torsions:
REMARK  status: ('A' for Active; 'I' for Inactive)
REMARK    1  A    between atoms: C_1  and  O_2
REMARK    2  A    between atoms: O_2  and  C_3
REMARK    3  A    between atoms: C_7  and  O_8
REMARK    4  A    between atoms: O_8  and  C_9
REMARK    5  A    between atoms: N_17  and  C_18
REMARK    6  A    between atoms: C_23  and  C_24
REMARK    7  A    between atoms: C_24  and  C_25
REMARK    8  A    between atoms: C_24  and  C_26
REMARK    9  A    between atoms: C_24  and  O_27
REMARK                            x       y       z     vdW  Elec       q    Type
REMARK                         _______ _______ _______ _____ _____    ______ ____
ROOT
ATOM      1  C   UNL     1       3.045   3.896 -23.266  0.00  0.00    +0.146 C 
ATOM      2  C   UNL     1       3.477   5.018 -22.900  0.00  0.00    +0.159 C 
ATOM      3  O   UNL     1       3.145   6.447 -22.518  0.00  0.00    -0.452 OA
ATOM      4  C   UNL     1       4.353   7.275 -22.164  0.00  0.00    +0.174 A 
ATOM      5  C   UNL     1       4.791   8.411 -21.794  0.00  0.00    +0.162 A 
ATOM      6  C   UNL     1       6.041   8.577 -21.627  0.00  0.00    +0.050 A 
ATOM      7  C   UNL     1       6.842   7.630 -21.825  0.00  0.00    +0.008 A 
ATOM      8  C   UNL     1       6.404   6.508 -22.191  0.00  0.00    -0.034 A 
ATOM      9  C   UNL     1       7.218   5.537 -22.395  0.00  0.00    +0.094 C 
ATOM     10  C   UNL     1       6.782   4.416 -22.761  0.00  0.00    +0.096 C 
ATOM     11  C   UNL     1       5.533   4.247 -22.928  0.00  0.00    -0.007 C 
ATOM     12  C   UNL     1       5.093   3.114 -23.298  0.00  0.00    -0.007 C 
ATOM     13  N   UNL     1       6.390   3.103 -23.178  0.00  0.00    +0.239 N 
ATOM     14  H   UNL     1       7.065   2.354 -23.331  0.00  0.00    +0.204 HD
ATOM     15  C   UNL     1       7.236   2.193 -23.361  0.00  0.00    +0.191 C 
ATOM     16  C   UNL     1       5.004   2.880 -23.374  0.00  0.00    +0.133 C 
ATOM     17  C   UNL     1       4.125   3.969 -23.142  0.00  0.00    +0.075 C 
ATOM     18  C   UNL     1       5.165   6.319 -22.364  0.00  0.00    +0.020 A 
ATOM     19  C   UNL     1       4.734   5.198 -22.729  0.00  0.00    +0.091 C 
ATOM     20  C   UNL     1       3.858   2.940 -23.465  0.00  0.00    +0.112 C 
ENDROOT
BRANCH  20  21
ATOM     21  C   UNL     1       3.426   1.815 -23.831  0.00  0.00    +0.074 C 
ATOM     22  C   UNL     1       3.076   0.965 -22.974  0.00  0.00    +0.042 C 
ATOM     23  C   UNL     1       3.129   1.008 -24.750  0.00  0.00    +0.042 C 
BRANCH  21  24
ATOM     24  O   UNL     1       3.581   2.148 -25.035  0.00  0.00    -0.388 OA
ATOM     25  H   UNL     1       3.358   3.085 -25.143  0.00  0.00    +0.210 HD
ENDBRANCH  21  24
ENDBRANCH  20  21
BRANCH   1  27
ATOM     26  C   UNL     1       1.155   4.510 -24.161  0.00  0.00    +0.276 C 
ATOM     27  O   UNL     1       1.810   3.720 -23.434  0.00  0.00    -0.495 OA
ENDBRANCH   1  27
BRANCH   5  28
ATOM     28  O   UNL     1       3.994   9.362 -21.594  0.00  0.00    -0.491 OA
ATOM     29  C   UNL     1       4.128  10.095 -20.582  0.00  0.00    +0.277 C 
ENDBRANCH   5  28
TORSDOF 4
ENDMDL
