MODEL 1
REMARK VINA RESULT:   -10.463      0.000      0.000
REMARK INTER + INTRA:          -9.484
REMARK INTER:                 -11.810
REMARK INTRA:                   2.327
REMARK UNBOUND:                 2.203
REMARK  Name = ZINC000096316372
REMARK  6 active torsions:
REMARK  status: ('A' for Active; 'I' for Inactive)
REMARK    1  A    between atoms: C_1  and  O_2
REMARK    2  A    between atoms: O_2  and  C_3
REMARK    3  A    between atoms: C_12  and  O_13
REMARK    4  A    between atoms: O_13  and  C_14
REMARK    5  A    between atoms: N_20  and  C_21
REMARK    6  A    between atoms: C_22  and  C_23
REMARK                            x       y       z     vdW  Elec       q    Type
REMARK                         _______ _______ _______ _____ _____    ______ ____
ROOT
ATOM      1  C   UNL     1      -2.730   3.615 -25.356  0.00  0.00    +0.142 C 
ATOM      2  C   UNL     1      -3.867   3.721 -24.809  0.00  0.00    +0.045 C 
ATOM      3  C   UNL     1      -4.021   3.403 -23.606  0.00  0.00    +0.009 C 
ATOM      4  C   UNL     1      -3.039   2.974 -22.933  0.00  0.00    -0.007 C 
ATOM      5  C   UNL     1      -3.203   2.654 -21.717  0.00  0.00    +0.096 C 
ATOM      6  C   UNL     1      -2.233   2.229 -21.049  0.00  0.00    +0.094 C 
ATOM      7  C   UNL     1      -1.085   2.118 -21.591  0.00  0.00    -0.034 A 
ATOM      8  C   UNL     1      -0.111   1.692 -20.922  0.00  0.00    +0.008 A 
ATOM      9  C   UNL     1       1.016   1.585 -21.458  0.00  0.00    +0.050 A 
ATOM     10  C   UNL     1       1.183   1.904 -22.673  0.00  0.00    +0.162 A 
ATOM     11  C   UNL     1       0.198   2.335 -23.348  0.00  0.00    +0.168 A 
ATOM     12  O   UNL     1      -0.286   2.841 -24.678  0.00  0.00    -0.473 OA
ATOM     13  C   UNL     1      -0.938   2.441 -22.802  0.00  0.00    +0.016 A 
ATOM     14  N   UNL     1      -4.371   3.126 -22.388  0.00  0.00    +0.239 N 
ATOM     15  H   UNL     1      -5.277   3.202 -21.923  0.00  0.00    +0.204 HD
ATOM     16  C   UNL     1      -5.474   3.212 -21.800  0.00  0.00    +0.191 C 
ATOM     17  C   UNL     1      -4.224   3.491 -23.743  0.00  0.00    +0.133 C 
ATOM     18  C   UNL     1      -2.941   3.360 -24.322  0.00  0.00    +0.071 C 
ATOM     19  C   UNL     1      -1.911   2.866 -23.467  0.00  0.00    +0.077 C 
ATOM     20  C   UNL     1      -1.758   3.191 -24.691  0.00  0.00    +0.178 C 
ATOM     21  C   UNL     1      -1.324   3.428 -25.843  0.00  0.00    +0.065 C 
ENDROOT
BRANCH   1  23
ATOM     22  C   UNL     1      -3.382   3.516 -27.424  0.00  0.00    +0.276 C 
ATOM     23  O   UNL     1      -2.578   3.935 -26.559  0.00  0.00    -0.495 OA
ENDBRANCH   1  23
BRANCH  10  24
ATOM     24  O   UNL     1       2.312   1.796 -23.206  0.00  0.00    -0.491 OA
ATOM     25  C   UNL     1       3.000   0.766 -23.015  0.00  0.00    +0.277 C 
ENDBRANCH  10  24
TORSDOF 2
ENDMDL
MODEL 2
REMARK VINA RESULT:   -10.162      1.770      3.265
REMARK INTER + INTRA:          -9.147
REMARK INTER:                 -11.352
REMARK INTRA:                   2.205
REMARK UNBOUND:                 2.203
REMARK  Name = ZINC000096316372
REMARK  6 active torsions:
REMARK  status: ('A' for Active; 'I' for Inactive)
REMARK    1  A    between atoms: C_1  and  O_2
REMARK    2  A    between atoms: O_2  and  C_3
REMARK    3  A    between atoms: C_12  and  O_13
REMARK    4  A    between atoms: O_13  and  C_14
REMARK    5  A    between atoms: N_20  and  C_21
REMARK    6  A    between atoms: C_22  and  C_23
REMARK                            x       y       z     vdW  Elec       q    Type
REMARK                         _______ _______ _______ _____ _____    ______ ____
ROOT
ATOM      1  C   UNL     1      -3.962   2.982 -22.461  0.00  0.00    +0.142 C 
ATOM      2  C   UNL     1      -4.409   3.423 -23.560  0.00  0.00    +0.045 C 
ATOM      3  C   UNL     1      -3.638   3.587 -24.535  0.00  0.00    +0.009 C 
ATOM      4  C   UNL     1      -2.407   3.312 -24.423  0.00  0.00    -0.007 C 
ATOM      5  C   UNL     1      -1.633   3.480 -25.413  0.00  0.00    +0.096 C 
ATOM      6  C   UNL     1      -0.415   3.209 -25.304  0.00  0.00    +0.094 C 
ATOM      7  C   UNL     1       0.043   2.765 -24.202  0.00  0.00    -0.034 A 
ATOM      8  C   UNL     1       1.265   2.493 -24.092  0.00  0.00    +0.008 A 
ATOM      9  C   UNL     1       1.711   2.056 -23.006  0.00  0.00    +0.050 A 
ATOM     10  C   UNL     1       0.940   1.887 -22.015  0.00  0.00    +0.162 A 
ATOM     11  C   UNL     1      -0.293   2.163 -22.128  0.00  0.00    +0.168 A 
ATOM     12  O   UNL     1      -1.636   2.206 -21.453  0.00  0.00    -0.473 OA
ATOM     13  C   UNL     1      -0.740   2.603 -23.226  0.00  0.00    +0.016 A 
ATOM     14  N   UNL     1      -3.001   3.820 -25.642  0.00  0.00    +0.239 N 
ATOM     15  H   UNL     1      -3.335   4.173 -26.539  0.00  0.00    +0.204 HD
ATOM     16  C   UNL     1      -3.392   4.252 -26.750  0.00  0.00    +0.191 C 
ATOM     17  C   UNL     1      -3.890   3.644 -24.560  0.00  0.00    +0.133 C 
ATOM     18  C   UNL     1      -3.358   3.150 -23.347  0.00  0.00    +0.071 C 
ATOM     19  C   UNL     1      -1.957   2.875 -23.338  0.00  0.00    +0.077 C 
ATOM     20  C   UNL     1      -2.745   2.710 -22.349  0.00  0.00    +0.178 C 
ATOM     21  C   UNL     1      -3.271   2.454 -21.239  0.00  0.00    +0.065 C 
ENDROOT
BRANCH   1  23
ATOM     22  C   UNL     1      -5.976   2.878 -21.657  0.00  0.00    +0.276 C 
ATOM     23  O   UNL     1      -4.736   2.819 -21.488  0.00  0.00    -0.495 OA
ENDBRANCH   1  23
BRANCH  10  24
ATOM     24  O   UNL     1       1.391   1.450 -20.930  0.00  0.00    -0.491 OA
ATOM     25  C   UNL     1       2.629   1.390 -20.744  0.00  0.00    +0.277 C 
ENDBRANCH  10  24
TORSDOF 2
ENDMDL
MODEL 3
REMARK VINA RESULT:   -10.086      2.136      5.547
REMARK INTER + INTRA:          -9.063
REMARK INTER:                 -11.283
REMARK INTRA:                   2.220
REMARK UNBOUND:                 2.203
REMARK  Name = ZINC000096316372
REMARK  6 active torsions:
REMARK  status: ('A' for Active; 'I' for Inactive)
REMARK    1  A    between atoms: C_1  and  O_2
REMARK    2  A    between atoms: O_2  and  C_3
REMARK    3  A    between atoms: C_12  and  O_13
REMARK    4  A    between atoms: O_13  and  C_14
REMARK    5  A    between atoms: N_20  and  C_21
REMARK    6  A    between atoms: C_22  and  C_23
REMARK                            x       y       z     vdW  Elec       q    Type
REMARK                         _______ _______ _______ _____ _____    ______ ____
ROOT
ATOM      1  C   UNL     1       0.223   1.954 -21.889  0.00  0.00    +0.142 C 
ATOM      2  C   UNL     1       1.038   2.274 -22.804  0.00  0.00    +0.045 C 
ATOM      3  C   UNL     1       0.633   2.874 -23.828  0.00  0.00    +0.009 C 
ATOM      4  C   UNL     1      -0.593   3.163 -23.951  0.00  0.00    -0.007 C 
ATOM      5  C   UNL     1      -0.994   3.770 -24.989  0.00  0.00    +0.096 C 
ATOM      6  C   UNL     1      -2.207   4.058 -25.112  0.00  0.00    +0.094 C 
ATOM      7  C   UNL     1      -3.034   3.741 -24.197  0.00  0.00    -0.034 A 
ATOM      8  C   UNL     1      -4.250   4.028 -24.319  0.00  0.00    +0.008 A 
ATOM      9  C   UNL     1      -5.060   3.714 -23.416  0.00  0.00    +0.050 A 
ATOM     10  C   UNL     1      -4.662   3.108 -22.377  0.00  0.00    +0.162 A 
ATOM     11  C   UNL     1      -3.432   2.818 -22.255  0.00  0.00    +0.168 A 
ATOM     12  O   UNL     1      -2.373   2.183 -21.399  0.00  0.00    -0.473 OA
ATOM     13  C   UNL     1      -2.618   3.136 -23.169  0.00  0.00    +0.016 A 
ATOM     14  N   UNL     1       0.405   3.490 -24.947  0.00  0.00    +0.239 N 
ATOM     15  H   UNL     1       1.040   3.759 -25.700  0.00  0.00    +0.204 HD
ATOM     16  C   UNL     1       1.169   3.828 -25.881  0.00  0.00    +0.191 C 
ATOM     17  C   UNL     1       0.886   2.815 -23.805  0.00  0.00    +0.133 C 
ATOM     18  C   UNL     1      -0.051   2.474 -22.803  0.00  0.00    +0.071 C 
ATOM     19  C   UNL     1      -1.405   2.851 -23.049  0.00  0.00    +0.077 C 
ATOM     20  C   UNL     1      -0.990   2.240 -22.009  0.00  0.00    +0.178 C 
ATOM     21  C   UNL     1      -0.870   1.653 -20.908  0.00  0.00    +0.065 C 
ENDROOT
BRANCH   1  23
ATOM     22  C   UNL     1       1.819   1.490 -20.492  0.00  0.00    +0.276 C 
ATOM     23  O   UNL     1       0.631   1.354 -20.866  0.00  0.00    -0.495 OA
ENDBRANCH   1  23
BRANCH  10  24
ATOM     24  O   UNL     1      -5.475   2.796 -21.477  0.00  0.00    -0.491 OA
ATOM     25  C   UNL     1      -6.677   2.588 -21.761  0.00  0.00    +0.277 C 
ENDBRANCH  10  24
TORSDOF 2
ENDMDL
MODEL 4
REMARK VINA RESULT:    -9.733      1.897      3.618
REMARK INTER + INTRA:          -8.668
REMARK INTER:                 -10.894
REMARK INTRA:                   2.225
REMARK UNBOUND:                 2.203
REMARK  Name = ZINC000096316372
REMARK  6 active torsions:
REMARK  status: ('A' for Active; 'I' for Inactive)
REMARK    1  A    between atoms: C_1  and  O_2
REMARK    2  A    between atoms: O_2  and  C_3
REMARK    3  A    between atoms: C_12  and  O_13
REMARK    4  A    between atoms: O_13  and  C_14
REMARK    5  A    between atoms: N_20  and  C_21
REMARK    6  A    between atoms: C_22  and  C_23
REMARK                            x       y       z     vdW  Elec       q    Type
REMARK                         _______ _______ _______ _____ _____    ______ ____
ROOT
ATOM      1  C   UNL     1      -2.360   2.397 -22.330  0.00  0.00    +0.142 C 
ATOM      2  C   UNL     1      -3.024   2.679 -23.370  0.00  0.00    +0.045 C 
ATOM      3  C   UNL     1      -2.435   3.015 -24.424  0.00  0.00    +0.009 C 
ATOM      4  C   UNL     1      -1.171   3.074 -24.453  0.00  0.00    -0.007 C 
ATOM      5  C   UNL     1      -0.582   3.414 -25.523  0.00  0.00    +0.096 C 
ATOM      6  C   UNL     1       0.669   3.472 -25.554  0.00  0.00    +0.094 C 
ATOM      7  C   UNL     1       1.346   3.190 -24.512  0.00  0.00    -0.034 A 
ATOM      8  C   UNL     1       2.601   3.248 -24.542  0.00  0.00    +0.008 A 
ATOM      9  C   UNL     1       3.263   2.970 -23.515  0.00  0.00    +0.050 A 
ATOM     10  C   UNL     1       2.677   2.630 -22.444  0.00  0.00    +0.162 A 
ATOM     11  C   UNL     1       1.409   2.571 -22.416  0.00  0.00    +0.168 A 
ATOM     12  O   UNL     1       0.185   2.280 -21.595  0.00  0.00    -0.473 OA
ATOM     13  C   UNL     1       0.744   2.853 -23.455  0.00  0.00    +0.016 A 
ATOM     14  N   UNL     1      -2.008   3.379 -25.594  0.00  0.00    +0.239 N 
ATOM     15  H   UNL     1      -2.519   3.611 -26.446  0.00  0.00    +0.204 HD
ATOM     16  C   UNL     1      -2.618   3.668 -26.649  0.00  0.00    +0.191 C 
ATOM     17  C   UNL     1      -2.695   3.004 -24.420  0.00  0.00    +0.133 C 
ATOM     18  C   UNL     1      -1.922   2.696 -23.278  0.00  0.00    +0.071 C 
ATOM     19  C   UNL     1      -0.506   2.796 -23.428  0.00  0.00    +0.077 C 
ATOM     20  C   UNL     1      -1.109   2.455 -22.357  0.00  0.00    +0.178 C 
ATOM     21  C   UNL     1      -1.424   2.098 -21.197  0.00  0.00    +0.065 C 
ENDROOT
BRANCH   1  23
ATOM     22  C   UNL     1      -4.143   2.404 -21.091  0.00  0.00    +0.276 C 
ATOM     23  O   UNL     1      -2.952   2.062 -21.277  0.00  0.00    -0.495 OA
ENDBRANCH   1  23
BRANCH  10  24
ATOM     24  O   UNL     1       3.343   2.352 -21.420  0.00  0.00    -0.491 OA
ATOM     25  C   UNL     1       4.576   2.151 -21.509  0.00  0.00    +0.277 C 
ENDBRANCH  10  24
TORSDOF 2
ENDMDL
MODEL 5
REMARK VINA RESULT:    -9.497      1.309      2.082
REMARK INTER + INTRA:          -8.405
REMARK INTER:                 -10.596
REMARK INTRA:                   2.192
REMARK UNBOUND:                 2.203
REMARK  Name = ZINC000096316372
REMARK  6 active torsions:
REMARK  status: ('A' for Active; 'I' for Inactive)
REMARK    1  A    between atoms: C_1  and  O_2
REMARK    2  A    between atoms: O_2  and  C_3
REMARK    3  A    between atoms: C_12  and  O_13
REMARK    4  A    between atoms: O_13  and  C_14
REMARK    5  A    between atoms: N_20  and  C_21
REMARK    6  A    between atoms: C_22  and  C_23
REMARK                            x       y       z     vdW  Elec       q    Type
REMARK                         _______ _______ _______ _____ _____    ______ ____
ROOT
ATOM      1  C   UNL     1      -1.373   3.225 -24.764  0.00  0.00    +0.142 C 
ATOM      2  C   UNL     1      -2.377   3.082 -24.006  0.00  0.00    +0.045 C 
ATOM      3  C   UNL     1      -2.232   2.635 -22.844  0.00  0.00    +0.009 C 
ATOM      4  C   UNL     1      -1.079   2.323 -22.423  0.00  0.00    -0.007 C 
ATOM      5  C   UNL     1      -0.941   1.871 -21.247  0.00  0.00    +0.096 C 
ATOM      6  C   UNL     1       0.199   1.563 -20.828  0.00  0.00    +0.094 C 
ATOM      7  C   UNL     1       1.215   1.703 -21.584  0.00  0.00    -0.034 A 
ATOM      8  C   UNL     1       2.358   1.394 -21.166  0.00  0.00    +0.008 A 
ATOM      9  C   UNL     1       3.355   1.533 -21.912  0.00  0.00    +0.050 A 
ATOM     10  C   UNL     1       3.219   1.984 -23.088  0.00  0.00    +0.162 A 
ATOM     11  C   UNL     1       2.063   2.296 -23.509  0.00  0.00    +0.168 A 
ATOM     12  O   UNL     1       1.247   2.828 -24.653  0.00  0.00    -0.473 OA
ATOM     13  C   UNL     1       1.060   2.154 -22.753  0.00  0.00    +0.016 A 
ATOM     14  N   UNL     1      -2.280   2.192 -21.625  0.00  0.00    +0.239 N 
ATOM     15  H   UNL     1      -3.072   2.067 -20.993  0.00  0.00    +0.204 HD
ATOM     16  C   UNL     1      -3.239   2.032 -20.836  0.00  0.00    +0.191 C 
ATOM     17  C   UNL     1      -2.470   2.698 -22.929  0.00  0.00    +0.133 C 
ATOM     18  C   UNL     1      -1.327   2.844 -23.748  0.00  0.00    +0.071 C 
ATOM     19  C   UNL     1      -0.081   2.462 -23.168  0.00  0.00    +0.077 C 
ATOM     20  C   UNL     1      -0.232   2.917 -24.349  0.00  0.00    +0.178 C 
ATOM     21  C   UNL     1      -0.084   3.329 -25.524  0.00  0.00    +0.065 C 
ENDROOT
BRANCH   1  23
ATOM     22  C   UNL     1      -2.624   3.554 -26.507  0.00  0.00    +0.276 C 
ATOM     23  O   UNL     1      -1.521   3.672 -25.926  0.00  0.00    -0.495 OA
ENDBRANCH   1  23
BRANCH  10  24
ATOM     24  O   UNL     1       4.219   2.122 -23.831  0.00  0.00    -0.491 OA
ATOM     25  C   UNL     1       4.965   3.120 -23.701  0.00  0.00    +0.277 C 
ENDBRANCH  10  24
TORSDOF 2
ENDMDL
MODEL 6
REMARK VINA RESULT:    -9.348      1.616      4.586
REMARK INTER + INTRA:          -8.238
REMARK INTER:                 -10.534
REMARK INTRA:                   2.296
REMARK UNBOUND:                 2.203
REMARK  Name = ZINC000096316372
REMARK  6 active torsions:
REMARK  status: ('A' for Active; 'I' for Inactive)
REMARK    1  A    between atoms: C_1  and  O_2
REMARK    2  A    between atoms: O_2  and  C_3
REMARK    3  A    between atoms: C_12  and  O_13
REMARK    4  A    between atoms: O_13  and  C_14
REMARK    5  A    between atoms: N_20  and  C_21
REMARK    6  A    between atoms: C_22  and  C_23
REMARK                            x       y       z     vdW  Elec       q    Type
REMARK                         _______ _______ _______ _____ _____    ______ ____
ROOT
ATOM      1  C   UNL     1       0.420   2.884 -24.417  0.00  0.00    +0.142 C 
ATOM      2  C   UNL     1       1.101   2.428 -23.452  0.00  0.00    +0.045 C 
ATOM      3  C   UNL     1       0.552   2.189 -22.350  0.00  0.00    +0.009 C 
ATOM      4  C   UNL     1      -0.686   2.404 -22.198  0.00  0.00    -0.007 C 
ATOM      5  C   UNL     1      -1.234   2.160 -21.081  0.00  0.00    +0.096 C 
ATOM      6  C   UNL     1      -2.459   2.372 -20.929  0.00  0.00    +0.094 C 
ATOM      7  C   UNL     1      -3.151   2.832 -21.894  0.00  0.00    -0.034 A 
ATOM      8  C   UNL     1      -4.380   3.045 -21.743  0.00  0.00    +0.008 A 
ATOM      9  C   UNL     1      -5.057   3.496 -22.695  0.00  0.00    +0.050 A 
ATOM     10  C   UNL     1      -4.513   3.741 -23.813  0.00  0.00    +0.162 A 
ATOM     11  C   UNL     1      -3.271   3.525 -23.964  0.00  0.00    +0.168 A 
ATOM     12  O   UNL     1      -2.094   3.575 -24.897  0.00  0.00    -0.473 OA
ATOM     13  C   UNL     1      -2.591   3.069 -23.000  0.00  0.00    +0.016 A 
ATOM     14  N   UNL     1       0.165   1.884 -21.149  0.00  0.00    +0.239 N 
ATOM     15  H   UNL     1       0.690   1.516 -20.355  0.00  0.00    +0.204 HD
ATOM     16  C   UNL     1       0.792   1.432 -20.164  0.00  0.00    +0.191 C 
ATOM     17  C   UNL     1       0.807   2.144 -22.379  0.00  0.00    +0.133 C 
ATOM     18  C   UNL     1       0.017   2.653 -23.435  0.00  0.00    +0.071 C 
ATOM     19  C   UNL     1      -1.366   2.856 -23.149  0.00  0.00    +0.077 C 
ATOM     20  C   UNL     1      -0.804   3.097 -24.268  0.00  0.00    +0.178 C 
ATOM     21  C   UNL     1      -0.528   3.419 -25.448  0.00  0.00    +0.065 C 
ENDROOT
BRANCH   1  23
ATOM     22  C   UNL     1       1.959   2.443 -25.884  0.00  0.00    +0.276 C 
ATOM     23  O   UNL     1       0.972   3.122 -25.518  0.00  0.00    -0.495 OA
ENDBRANCH   1  23
BRANCH  10  24
ATOM     24  O   UNL     1      -5.194   4.193 -24.763  0.00  0.00    -0.491 OA
ATOM     25  C   UNL     1      -5.230   3.581 -25.856  0.00  0.00    +0.277 C 
ENDBRANCH  10  24
TORSDOF 2
ENDMDL
MODEL 7
REMARK VINA RESULT:    -8.498      2.799      5.957
REMARK INTER + INTRA:          -7.289
REMARK INTER:                  -9.502
REMARK INTRA:                   2.213
REMARK UNBOUND:                 2.203
REMARK  Name = ZINC000096316372
REMARK  6 active torsions:
REMARK  status: ('A' for Active; 'I' for Inactive)
REMARK    1  A    between atoms: C_1  and  O_2
REMARK    2  A    between atoms: O_2  and  C_3
REMARK    3  A    between atoms: C_12  and  O_13
REMARK    4  A    between atoms: O_13  and  C_14
REMARK    5  A    between atoms: N_20  and  C_21
REMARK    6  A    between atoms: C_22  and  C_23
REMARK                            x       y       z     vdW  Elec       q    Type
REMARK                         _______ _______ _______ _____ _____    ______ ____
ROOT
ATOM      1  C   UNL     1       3.584   4.162 -22.930  0.00  0.00    +0.142 C 
ATOM      2  C   UNL     1       4.204   3.214 -22.365  0.00  0.00    +0.045 C 
ATOM      3  C   UNL     1       3.577   2.218 -21.933  0.00  0.00    +0.009 C 
ATOM      4  C   UNL     1       2.319   2.157 -22.060  0.00  0.00    -0.007 C 
ATOM      5  C   UNL     1       1.692   1.146 -21.621  0.00  0.00    +0.096 C 
ATOM      6  C   UNL     1       0.447   1.084 -21.746  0.00  0.00    +0.094 C 
ATOM      7  C   UNL     1      -0.185   2.033 -22.313  0.00  0.00    -0.034 A 
ATOM      8  C   UNL     1      -1.434   1.971 -22.439  0.00  0.00    +0.008 A 
ATOM      9  C   UNL     1      -2.052   2.907 -22.998  0.00  0.00    +0.050 A 
ATOM     10  C   UNL     1      -1.427   3.918 -23.438  0.00  0.00    +0.162 A 
ATOM     11  C   UNL     1      -0.166   3.979 -23.309  0.00  0.00    +0.168 A 
ATOM     12  O   UNL     1       1.083   4.776 -23.561  0.00  0.00    -0.473 OA
ATOM     13  C   UNL     1       0.454   3.032 -22.745  0.00  0.00    +0.016 A 
ATOM     14  N   UNL     1       3.106   1.119 -21.428  0.00  0.00    +0.239 N 
ATOM     15  H   UNL     1       3.581   0.341 -20.969  0.00  0.00    +0.204 HD
ATOM     16  C   UNL     1       3.671   0.156 -20.862  0.00  0.00    +0.191 C 
ATOM     17  C   UNL     1       3.836   2.229 -21.906  0.00  0.00    +0.133 C 
ATOM     18  C   UNL     1       3.112   3.269 -22.531  0.00  0.00    +0.071 C 
ATOM     19  C   UNL     1       1.698   3.091 -22.618  0.00  0.00    +0.077 C 
ATOM     20  C   UNL     1       2.340   4.103 -23.057  0.00  0.00    +0.178 C 
ATOM     21  C   UNL     1       2.698   5.190 -23.569  0.00  0.00    +0.065 C 
ENDROOT
BRANCH   1  23
ATOM     22  C   UNL     1       5.388   5.370 -22.977  0.00  0.00    +0.276 C 
ATOM     23  O   UNL     1       4.214   5.157 -23.361  0.00  0.00    -0.495 OA
ENDBRANCH   1  23
BRANCH  10  24
ATOM     24  O   UNL     1      -2.050   4.852 -23.995  0.00  0.00    -0.491 OA
ATOM     25  C   UNL     1      -3.082   4.608 -24.662  0.00  0.00    +0.277 C 
ENDBRANCH  10  24
TORSDOF 2
ENDMDL
MODEL 8
REMARK VINA RESULT:    -7.575      5.122      8.180
REMARK INTER + INTRA:          -6.258
REMARK INTER:                  -8.463
REMARK INTRA:                   2.205
REMARK UNBOUND:                 2.203
REMARK  Name = ZINC000096316372
REMARK  6 active torsions:
REMARK  status: ('A' for Active; 'I' for Inactive)
REMARK    1  A    between atoms: C_1  and  O_2
REMARK    2  A    between atoms: O_2  and  C_3
REMARK    3  A    between atoms: C_12  and  O_13
REMARK    4  A    between atoms: O_13  and  C_14
REMARK    5  A    between atoms: N_20  and  C_21
REMARK    6  A    between atoms: C_22  and  C_23
REMARK                            x       y       z     vdW  Elec       q    Type
REMARK                         _______ _______ _______ _____ _____    ______ ____
ROOT
ATOM      1  C   UNL     1       5.503   6.562 -22.132  0.00  0.00    +0.142 C 
ATOM      2  C   UNL     1       6.546   5.853 -22.246  0.00  0.00    +0.045 C 
ATOM      3  C   UNL     1       6.475   4.697 -22.726  0.00  0.00    +0.009 C 
ATOM      4  C   UNL     1       5.357   4.233 -23.099  0.00  0.00    -0.007 C 
ATOM      5  C   UNL     1       5.293   3.063 -23.584  0.00  0.00    +0.096 C 
ATOM      6  C   UNL     1       4.189   2.602 -23.954  0.00  0.00    +0.094 C 
ATOM      7  C   UNL     1       3.134   3.308 -23.843  0.00  0.00    -0.034 A 
ATOM      8  C   UNL     1       2.026   2.846 -24.214  0.00  0.00    +0.008 A 
ATOM      9  C   UNL     1       0.991   3.544 -24.103  0.00  0.00    +0.050 A 
ATOM     10  C   UNL     1       1.052   4.713 -23.619  0.00  0.00    +0.162 A 
ATOM     11  C   UNL     1       2.172   5.178 -23.245  0.00  0.00    +0.168 A 
ATOM     12  O   UNL     1       2.911   6.344 -22.650  0.00  0.00    -0.473 OA
ATOM     13  C   UNL     1       3.215   4.471 -23.359  0.00  0.00    +0.016 A 
ATOM     14  N   UNL     1       6.598   3.493 -23.193  0.00  0.00    +0.239 N 
ATOM     15  H   UNL     1       7.423   2.901 -23.296  0.00  0.00    +0.204 HD
ATOM     16  C   UNL     1       7.599   2.752 -23.328  0.00  0.00    +0.191 C 
ATOM     17  C   UNL     1       6.705   4.791 -22.650  0.00  0.00    +0.133 C 
ATOM     18  C   UNL     1       5.521   5.554 -22.537  0.00  0.00    +0.071 C 
ATOM     19  C   UNL     1       4.321   4.929 -22.990  0.00  0.00    +0.077 C 
ATOM     20  C   UNL     1       4.397   6.104 -22.501  0.00  0.00    +0.178 C 
ATOM     21  C   UNL     1       4.177   7.261 -22.069  0.00  0.00    +0.065 C 
ENDROOT
BRANCH   1  23
ATOM     22  C   UNL     1       6.635   8.100 -21.099  0.00  0.00    +0.276 C 
ATOM     23  O   UNL     1       5.577   7.718 -21.652  0.00  0.00    -0.495 OA
ENDBRANCH   1  23
BRANCH  10  24
ATOM     24  O   UNL     1       0.015   5.407 -23.510  0.00  0.00    -0.491 OA
ATOM     25  C   UNL     1      -0.965   4.974 -22.861  0.00  0.00    +0.277 C 
ENDBRANCH  10  24
TORSDOF 2
ENDMDL
