MODEL 1
REMARK VINA RESULT:    -7.453      0.000      0.000
REMARK INTER + INTRA:          -7.671
REMARK INTER:                  -7.671
REMARK INTRA:                   0.000
REMARK UNBOUND:                 0.000
REMARK  Name = ZINC000000338212
REMARK  2 active torsions:
REMARK  status: ('A' for Active; 'I' for Inactive)
REMARK    1  A    between atoms: C_1  and  C_2
REMARK    2  A    between atoms: C_7  and  O_8
REMARK                            x       y       z     vdW  Elec       q    Type
REMARK                         _______ _______ _______ _____ _____    ______ ____
ROOT
ATOM      1  C   UNL     1      -0.072   1.509 -21.380  0.00  0.00    +0.086 C 
ATOM      2  C   UNL     1      -1.072   2.034 -22.022  0.00  0.00    +0.106 A 
ATOM      3  C   UNL     1      -0.921   2.428 -23.252  0.00  0.00    +0.093 A 
ATOM      4  C   UNL     1      -1.922   2.954 -23.894  0.00  0.00    +0.196 A 
ATOM      5  C   UNL     1      -3.074   3.086 -23.306  0.00  0.00    +0.105 A 
ATOM      6  C   UNL     1      -4.075   3.612 -23.948  0.00  0.00    +0.131 A 
ATOM      7  C   UNL     1      -5.226   3.744 -23.360  0.00  0.00    +0.046 A 
ATOM      8  C   UNL     1      -5.377   3.351 -22.130  0.00  0.00    +0.007 A 
ATOM      9  C   UNL     1      -4.377   2.825 -21.488  0.00  0.00    +0.047 A 
ATOM     10  C   UNL     1      -3.225   2.693 -22.076  0.00  0.00    +0.142 A 
ATOM     11  O   UNL     1      -1.771   3.348 -25.123  0.00  0.00    -0.287 OA
ATOM     12  O   UNL     1      -2.224   2.167 -21.434  0.00  0.00    -0.460 OA
ENDROOT
BRANCH   6  13
ATOM     13  O   UNL     1      -3.924   4.006 -25.178  0.00  0.00    -0.506 OA
ATOM     14  H   UNL     1      -3.120   4.407 -25.446  0.00  0.00    +0.292 HD
ENDBRANCH   6  13
TORSDOF 1
ENDMDL
MODEL 2
REMARK VINA RESULT:    -7.421      1.471      2.494
REMARK INTER + INTRA:          -7.638
REMARK INTER:                  -7.638
REMARK INTRA:                   0.000
REMARK UNBOUND:                 0.000
REMARK  Name = ZINC000000338212
REMARK  2 active torsions:
REMARK  status: ('A' for Active; 'I' for Inactive)
REMARK    1  A    between atoms: C_1  and  C_2
REMARK    2  A    between atoms: C_7  and  O_8
REMARK                            x       y       z     vdW  Elec       q    Type
REMARK                         _______ _______ _______ _____ _____    ______ ____
ROOT
ATOM      1  C   UNL     1      -0.317   3.731 -25.166  0.00  0.00    +0.086 C 
ATOM      2  C   UNL     1      -1.453   3.651 -24.539  0.00  0.00    +0.106 A 
ATOM      3  C   UNL     1      -2.537   4.101 -25.099  0.00  0.00    +0.093 A 
ATOM      4  C   UNL     1      -3.673   4.021 -24.472  0.00  0.00    +0.196 A 
ATOM      5  C   UNL     1      -3.726   3.492 -23.285  0.00  0.00    +0.105 A 
ATOM      6  C   UNL     1      -4.862   3.413 -22.659  0.00  0.00    +0.131 A 
ATOM      7  C   UNL     1      -4.914   2.884 -21.473  0.00  0.00    +0.046 A 
ATOM      8  C   UNL     1      -3.830   2.435 -20.913  0.00  0.00    +0.007 A 
ATOM      9  C   UNL     1      -2.694   2.514 -21.540  0.00  0.00    +0.047 A 
ATOM     10  C   UNL     1      -2.642   3.043 -22.726  0.00  0.00    +0.142 A 
ATOM     11  O   UNL     1      -4.757   4.471 -25.032  0.00  0.00    -0.287 OA
ATOM     12  O   UNL     1      -1.505   3.122 -23.353  0.00  0.00    -0.460 OA
ENDROOT
BRANCH   6  13
ATOM     13  O   UNL     1      -5.946   3.862 -23.218  0.00  0.00    -0.506 OA
ATOM     14  H   UNL     1      -6.596   3.263 -23.530  0.00  0.00    +0.292 HD
ENDBRANCH   6  13
TORSDOF 1
ENDMDL
MODEL 3
REMARK VINA RESULT:    -7.414      1.543      2.678
REMARK INTER + INTRA:          -7.630
REMARK INTER:                  -7.630
REMARK INTRA:                   0.000
REMARK UNBOUND:                 0.000
REMARK  Name = ZINC000000338212
REMARK  2 active torsions:
REMARK  status: ('A' for Active; 'I' for Inactive)
REMARK    1  A    between atoms: C_1  and  C_2
REMARK    2  A    between atoms: C_7  and  O_8
REMARK                            x       y       z     vdW  Elec       q    Type
REMARK                         _______ _______ _______ _____ _____    ______ ____
ROOT
ATOM      1  C   UNL     1      -0.602   1.885 -21.394  0.00  0.00    +0.086 C 
ATOM      2  C   UNL     1      -1.613   2.344 -22.071  0.00  0.00    +0.106 A 
ATOM      3  C   UNL     1      -2.706   2.686 -21.456  0.00  0.00    +0.093 A 
ATOM      4  C   UNL     1      -3.716   3.145 -22.132  0.00  0.00    +0.196 A 
ATOM      5  C   UNL     1      -3.634   3.263 -23.425  0.00  0.00    +0.105 A 
ATOM      6  C   UNL     1      -4.644   3.722 -24.102  0.00  0.00    +0.131 A 
ATOM      7  C   UNL     1      -4.561   3.840 -25.393  0.00  0.00    +0.046 A 
ATOM      8  C   UNL     1      -3.468   3.498 -26.008  0.00  0.00    +0.007 A 
ATOM      9  C   UNL     1      -2.458   3.039 -25.331  0.00  0.00    +0.047 A 
ATOM     10  C   UNL     1      -2.540   2.921 -24.040  0.00  0.00    +0.142 A 
ATOM     11  O   UNL     1      -4.809   3.487 -21.517  0.00  0.00    -0.287 OA
ATOM     12  O   UNL     1      -1.530   2.462 -23.362  0.00  0.00    -0.460 OA
ENDROOT
BRANCH   6  13
ATOM     13  O   UNL     1      -5.737   4.064 -23.487  0.00  0.00    -0.506 OA
ATOM     14  H   UNL     1      -6.546   3.640 -23.698  0.00  0.00    +0.292 HD
ENDBRANCH   6  13
TORSDOF 1
ENDMDL
MODEL 4
REMARK VINA RESULT:    -7.402      1.697      2.541
REMARK INTER + INTRA:          -7.618
REMARK INTER:                  -7.618
REMARK INTRA:                   0.000
REMARK UNBOUND:                 0.000
REMARK  Name = ZINC000000338212
REMARK  2 active torsions:
REMARK  status: ('A' for Active; 'I' for Inactive)
REMARK    1  A    between atoms: C_1  and  C_2
REMARK    2  A    between atoms: C_7  and  O_8
REMARK                            x       y       z     vdW  Elec       q    Type
REMARK                         _______ _______ _______ _____ _____    ______ ____
ROOT
ATOM      1  C   UNL     1      -2.992   3.689 -20.250  0.00  0.00    +0.086 C 
ATOM      2  C   UNL     1      -2.865   3.622 -21.542  0.00  0.00    +0.106 A 
ATOM      3  C   UNL     1      -1.689   3.466 -22.073  0.00  0.00    +0.093 A 
ATOM      4  C   UNL     1      -1.563   3.399 -23.365  0.00  0.00    +0.196 A 
ATOM      5  C   UNL     1      -2.613   3.489 -24.127  0.00  0.00    +0.105 A 
ATOM      6  C   UNL     1      -2.487   3.422 -25.418  0.00  0.00    +0.131 A 
ATOM      7  C   UNL     1      -3.537   3.512 -26.179  0.00  0.00    +0.046 A 
ATOM      8  C   UNL     1      -4.713   3.668 -25.648  0.00  0.00    +0.007 A 
ATOM      9  C   UNL     1      -4.839   3.735 -24.356  0.00  0.00    +0.047 A 
ATOM     10  C   UNL     1      -3.789   3.645 -23.595  0.00  0.00    +0.142 A 
ATOM     11  O   UNL     1      -0.387   3.243 -23.896  0.00  0.00    -0.287 OA
ATOM     12  O   UNL     1      -3.915   3.712 -22.302  0.00  0.00    -0.460 OA
ENDROOT
BRANCH   6  13
ATOM     13  O   UNL     1      -1.311   3.266 -25.950  0.00  0.00    -0.506 OA
ATOM     14  H   UNL     1      -0.847   4.007 -26.287  0.00  0.00    +0.292 HD
ENDBRANCH   6  13
TORSDOF 1
ENDMDL
MODEL 5
REMARK VINA RESULT:    -7.111      1.314      3.259
REMARK INTER + INTRA:          -7.319
REMARK INTER:                  -7.319
REMARK INTRA:                   0.000
REMARK UNBOUND:                 0.000
REMARK  Name = ZINC000000338212
REMARK  2 active torsions:
REMARK  status: ('A' for Active; 'I' for Inactive)
REMARK    1  A    between atoms: C_1  and  C_2
REMARK    2  A    between atoms: C_7  and  O_8
REMARK                            x       y       z     vdW  Elec       q    Type
REMARK                         _______ _______ _______ _____ _____    ______ ____
ROOT
ATOM      1  C   UNL     1      -3.155   3.741 -27.029  0.00  0.00    +0.086 C 
ATOM      2  C   UNL     1      -3.129   3.473 -25.758  0.00  0.00    +0.106 A 
ATOM      3  C   UNL     1      -2.045   3.006 -25.213  0.00  0.00    +0.093 A 
ATOM      4  C   UNL     1      -2.019   2.737 -23.942  0.00  0.00    +0.196 A 
ATOM      5  C   UNL     1      -3.078   2.936 -23.214  0.00  0.00    +0.105 A 
ATOM      6  C   UNL     1      -3.052   2.668 -21.942  0.00  0.00    +0.131 A 
ATOM      7  C   UNL     1      -4.111   2.866 -21.215  0.00  0.00    +0.046 A 
ATOM      8  C   UNL     1      -5.195   3.333 -21.759  0.00  0.00    +0.007 A 
ATOM      9  C   UNL     1      -5.221   3.602 -23.031  0.00  0.00    +0.047 A 
ATOM     10  C   UNL     1      -4.162   3.403 -23.758  0.00  0.00    +0.142 A 
ATOM     11  O   UNL     1      -0.935   2.270 -23.398  0.00  0.00    -0.287 OA
ATOM     12  O   UNL     1      -4.188   3.671 -25.030  0.00  0.00    -0.460 OA
ENDROOT
BRANCH   6  13
ATOM     13  O   UNL     1      -1.968   2.201 -21.398  0.00  0.00    -0.506 OA
ATOM     14  H   UNL     1      -1.567   2.658 -20.685  0.00  0.00    +0.292 HD
ENDBRANCH   6  13
TORSDOF 1
ENDMDL
MODEL 6
REMARK VINA RESULT:    -7.036      1.202      3.604
REMARK INTER + INTRA:          -7.242
REMARK INTER:                  -7.242
REMARK INTRA:                   0.000
REMARK UNBOUND:                 0.000
REMARK  Name = ZINC000000338212
REMARK  2 active torsions:
REMARK  status: ('A' for Active; 'I' for Inactive)
REMARK    1  A    between atoms: C_1  and  C_2
REMARK    2  A    between atoms: C_7  and  O_8
REMARK                            x       y       z     vdW  Elec       q    Type
REMARK                         _______ _______ _______ _____ _____    ______ ____
ROOT
ATOM      1  C   UNL     1      -5.533   3.742 -23.265  0.00  0.00    +0.086 C 
ATOM      2  C   UNL     1      -4.275   3.433 -23.370  0.00  0.00    +0.106 A 
ATOM      3  C   UNL     1      -3.664   3.571 -24.510  0.00  0.00    +0.093 A 
ATOM      4  C   UNL     1      -2.406   3.263 -24.614  0.00  0.00    +0.196 A 
ATOM      5  C   UNL     1      -1.757   2.816 -23.579  0.00  0.00    +0.105 A 
ATOM      6  C   UNL     1      -0.499   2.508 -23.684  0.00  0.00    +0.131 A 
ATOM      7  C   UNL     1       0.149   2.061 -22.650  0.00  0.00    +0.046 A 
ATOM      8  C   UNL     1      -0.462   1.923 -21.510  0.00  0.00    +0.007 A 
ATOM      9  C   UNL     1      -1.720   2.232 -21.405  0.00  0.00    +0.047 A 
ATOM     10  C   UNL     1      -2.368   2.678 -22.440  0.00  0.00    +0.142 A 
ATOM     11  O   UNL     1      -1.795   3.401 -25.754  0.00  0.00    -0.287 OA
ATOM     12  O   UNL     1      -3.627   2.987 -22.336  0.00  0.00    -0.460 OA
ENDROOT
BRANCH   6  13
ATOM     13  O   UNL     1       0.112   2.646 -24.823  0.00  0.00    -0.506 OA
ATOM     14  H   UNL     1       0.577   1.923 -25.196  0.00  0.00    +0.292 HD
ENDBRANCH   6  13
TORSDOF 1
ENDMDL
MODEL 7
REMARK VINA RESULT:    -6.936      2.355      4.356
REMARK INTER + INTRA:          -7.139
REMARK INTER:                  -7.139
REMARK INTRA:                   0.000
REMARK UNBOUND:                 0.000
REMARK  Name = ZINC000000338212
REMARK  2 active torsions:
REMARK  status: ('A' for Active; 'I' for Inactive)
REMARK    1  A    between atoms: C_1  and  C_2
REMARK    2  A    between atoms: C_7  and  O_8
REMARK                            x       y       z     vdW  Elec       q    Type
REMARK                         _______ _______ _______ _____ _____    ______ ____
ROOT
ATOM      1  C   UNL     1      -3.457   3.607 -20.629  0.00  0.00    +0.086 C 
ATOM      2  C   UNL     1      -2.389   3.387 -21.337  0.00  0.00    +0.106 A 
ATOM      3  C   UNL     1      -1.886   2.190 -21.400  0.00  0.00    +0.093 A 
ATOM      4  C   UNL     1      -0.818   1.970 -22.107  0.00  0.00    +0.196 A 
ATOM      5  C   UNL     1      -0.253   2.948 -22.753  0.00  0.00    +0.105 A 
ATOM      6  C   UNL     1       0.815   2.728 -23.460  0.00  0.00    +0.131 A 
ATOM      7  C   UNL     1       1.380   3.705 -24.105  0.00  0.00    +0.046 A 
ATOM      8  C   UNL     1       0.877   4.902 -24.042  0.00  0.00    +0.007 A 
ATOM      9  C   UNL     1      -0.191   5.122 -23.334  0.00  0.00    +0.047 A 
ATOM     10  C   UNL     1      -0.756   4.145 -22.690  0.00  0.00    +0.142 A 
ATOM     11  O   UNL     1      -0.315   0.773 -22.170  0.00  0.00    -0.287 OA
ATOM     12  O   UNL     1      -1.824   4.364 -21.981  0.00  0.00    -0.460 OA
ENDROOT
BRANCH   6  13
ATOM     13  O   UNL     1       1.318   1.531 -23.524  0.00  0.00    -0.506 OA
ATOM     14  H   UNL     1       1.767   1.251 -24.297  0.00  0.00    +0.292 HD
ENDBRANCH   6  13
TORSDOF 1
ENDMDL
MODEL 8
REMARK VINA RESULT:    -6.894      1.506      2.806
REMARK INTER + INTRA:          -7.095
REMARK INTER:                  -7.095
REMARK INTRA:                   0.000
REMARK UNBOUND:                 0.000
REMARK  Name = ZINC000000338212
REMARK  2 active torsions:
REMARK  status: ('A' for Active; 'I' for Inactive)
REMARK    1  A    between atoms: C_1  and  C_2
REMARK    2  A    between atoms: C_7  and  O_8
REMARK                            x       y       z     vdW  Elec       q    Type
REMARK                         _______ _______ _______ _____ _____    ______ ____
ROOT
ATOM      1  C   UNL     1       0.676   4.223 -23.393  0.00  0.00    +0.086 C 
ATOM      2  C   UNL     1      -0.599   4.021 -23.241  0.00  0.00    +0.106 A 
ATOM      3  C   UNL     1      -1.041   3.438 -22.166  0.00  0.00    +0.093 A 
ATOM      4  C   UNL     1      -2.316   3.236 -22.013  0.00  0.00    +0.196 A 
ATOM      5  C   UNL     1      -3.150   3.617 -22.936  0.00  0.00    +0.105 A 
ATOM      6  C   UNL     1      -4.424   3.415 -22.784  0.00  0.00    +0.131 A 
ATOM      7  C   UNL     1      -5.257   3.795 -23.706  0.00  0.00    +0.046 A 
ATOM      8  C   UNL     1      -4.815   4.377 -24.781  0.00  0.00    +0.007 A 
ATOM      9  C   UNL     1      -3.540   4.579 -24.934  0.00  0.00    +0.047 A 
ATOM     10  C   UNL     1      -2.707   4.199 -24.011  0.00  0.00    +0.142 A 
ATOM     11  O   UNL     1      -2.758   2.654 -20.939  0.00  0.00    -0.287 OA
ATOM     12  O   UNL     1      -1.432   4.401 -24.163  0.00  0.00    -0.460 OA
ENDROOT
BRANCH   6  13
ATOM     13  O   UNL     1      -4.867   2.832 -21.709  0.00  0.00    -0.506 OA
ATOM     14  H   UNL     1      -4.538   1.989 -21.464  0.00  0.00    +0.292 HD
ENDBRANCH   6  13
TORSDOF 1
ENDMDL
MODEL 9
REMARK VINA RESULT:    -6.583      2.748      3.623
REMARK INTER + INTRA:          -6.776
REMARK INTER:                  -6.776
REMARK INTRA:                   0.000
REMARK UNBOUND:                 0.000
REMARK  Name = ZINC000000338212
REMARK  2 active torsions:
REMARK  status: ('A' for Active; 'I' for Inactive)
REMARK    1  A    between atoms: C_1  and  C_2
REMARK    2  A    between atoms: C_7  and  O_8
REMARK                            x       y       z     vdW  Elec       q    Type
REMARK                         _______ _______ _______ _____ _____    ______ ____
ROOT
ATOM      1  C   UNL     1       3.032   1.011 -23.430  0.00  0.00    +0.086 C 
ATOM      2  C   UNL     1       2.114   1.922 -23.302  0.00  0.00    +0.106 A 
ATOM      3  C   UNL     1       2.340   3.135 -23.712  0.00  0.00    +0.093 A 
ATOM      4  C   UNL     1       1.422   4.046 -23.585  0.00  0.00    +0.196 A 
ATOM      5  C   UNL     1       0.277   3.745 -23.047  0.00  0.00    +0.105 A 
ATOM      6  C   UNL     1      -0.641   4.656 -22.919  0.00  0.00    +0.131 A 
ATOM      7  C   UNL     1      -1.785   4.355 -22.381  0.00  0.00    +0.046 A 
ATOM      8  C   UNL     1      -2.011   3.142 -21.971  0.00  0.00    +0.007 A 
ATOM      9  C   UNL     1      -1.093   2.231 -22.099  0.00  0.00    +0.047 A 
ATOM     10  C   UNL     1       0.051   2.532 -22.636  0.00  0.00    +0.142 A 
ATOM     11  O   UNL     1       1.648   5.259 -23.995  0.00  0.00    -0.287 OA
ATOM     12  O   UNL     1       0.970   1.621 -22.764  0.00  0.00    -0.460 OA
ENDROOT
BRANCH   6  13
ATOM     13  O   UNL     1      -0.415   5.869 -23.329  0.00  0.00    -0.506 OA
ATOM     14  H   UNL     1      -0.225   6.031 -24.233  0.00  0.00    +0.292 HD
ENDBRANCH   6  13
TORSDOF 1
ENDMDL
