MODEL 1
REMARK VINA RESULT:   -10.363      0.000      0.000
REMARK INTER + INTRA:         -10.363
REMARK INTER:                 -10.363
REMARK INTRA:                   0.000
REMARK UNBOUND:                 0.000
REMARK  Name = C=C1C(=O)O[C@@H]2[C@@H]1CCC(C)=CCC[C@@]1(C)O[C@H]21                  ZINC000253986906
REMARK  2 active torsions:
REMARK  status: ('A' for Active; 'I' for Inactive)
REMARK    1  A    between atoms: C_10  and  C_11
REMARK    2  A    between atoms: C_15  and  C_16
REMARK                            x       y       z     vdW  Elec       q    Type
REMARK                         _______ _______ _______ _____ _____    ______ ____
ROOT
ATOM      1  C   UNL     1       0.291   1.503 -21.011  0.00  0.00    +0.020 C 
ATOM      2  C   UNL     1      -0.297   1.957 -22.062  0.00  0.00    +0.036 C 
ATOM      3  C   UNL     1       0.234   2.098 -23.230  0.00  0.00    +0.335 C 
ATOM      4  O   UNL     1      -0.659   2.578 -24.020  0.00  0.00    -0.455 OA
ATOM      5  C   UNL     1      -1.747   2.736 -23.346  0.00  0.00    +0.216 C 
ATOM      6  C   UNL     1      -2.911   3.164 -23.619  0.00  0.00    +0.192 C 
ATOM      7  O   UNL     1      -4.122   3.576 -23.771  0.00  0.00    -0.361 OA
ATOM      8  C   UNL     1      -3.313   3.587 -24.769  0.00  0.00    +0.097 C 
ATOM      9  C   UNL     1      -2.317   3.494 -25.584  0.00  0.00    +0.044 C 
ATOM     10  C   UNL     1      -4.221   4.026 -25.383  0.00  0.00    +0.041 C 
ATOM     11  C   UNL     1      -5.288   4.133 -24.537  0.00  0.00    +0.030 C 
ATOM     12  C   UNL     1      -5.129   3.727 -23.166  0.00  0.00    -0.028 C 
ATOM     13  C   UNL     1      -3.927   3.253 -22.763  0.00  0.00    -0.077 C 
ATOM     14  C   UNL     1      -4.872   3.318 -21.896  0.00  0.00    +0.039 C 
ATOM     15  C   UNL     1      -3.690   2.866 -21.555  0.00  0.00    +0.031 C 
ATOM     16  C   UNL     1      -2.487   2.414 -21.237  0.00  0.00    +0.016 C 
ATOM     17  O   UNL     1       1.451   1.807 -23.546  0.00  0.00    -0.245 OA
ATOM     18  C   UNL     1      -1.521   2.352 -22.136  0.00  0.00    +0.069 C 
ENDROOT
TORSDOF 0
ENDMDL
MODEL 2
REMARK VINA RESULT:   -10.295      1.216      2.593
REMARK INTER + INTRA:         -10.295
REMARK INTER:                 -10.295
REMARK INTRA:                   0.000
REMARK UNBOUND:                 0.000
REMARK  Name = C=C1C(=O)O[C@@H]2[C@@H]1CCC(C)=CCC[C@@]1(C)O[C@H]21                  ZINC000253986906
REMARK  2 active torsions:
REMARK  status: ('A' for Active; 'I' for Inactive)
REMARK    1  A    between atoms: C_10  and  C_11
REMARK    2  A    between atoms: C_15  and  C_16
REMARK                            x       y       z     vdW  Elec       q    Type
REMARK                         _______ _______ _______ _____ _____    ______ ____
ROOT
ATOM      1  C   UNL     1       1.361   2.216 -23.205  0.00  0.00    +0.020 C 
ATOM      2  C   UNL     1       0.186   2.266 -22.684  0.00  0.00    +0.036 C 
ATOM      3  C   UNL     1      -0.139   1.872 -21.499  0.00  0.00    +0.335 C 
ATOM      4  O   UNL     1      -1.397   2.081 -21.338  0.00  0.00    -0.455 OA
ATOM      5  C   UNL     1      -1.857   2.606 -22.422  0.00  0.00    +0.216 C 
ATOM      6  C   UNL     1      -3.001   3.004 -22.805  0.00  0.00    +0.192 C 
ATOM      7  O   UNL     1      -4.105   3.439 -23.305  0.00  0.00    -0.361 OA
ATOM      8  C   UNL     1      -4.088   2.967 -22.111  0.00  0.00    +0.097 C 
ATOM      9  C   UNL     1      -3.796   2.454 -20.963  0.00  0.00    +0.044 C 
ATOM     10  C   UNL     1      -5.243   3.211 -22.096  0.00  0.00    +0.041 C 
ATOM     11  C   UNL     1      -5.573   3.756 -23.304  0.00  0.00    +0.030 C 
ATOM     12  C   UNL     1      -4.544   3.921 -24.294  0.00  0.00    -0.028 C 
ATOM     13  C   UNL     1      -3.284   3.531 -23.994  0.00  0.00    -0.077 C 
ATOM     14  C   UNL     1      -3.499   4.033 -25.156  0.00  0.00    +0.039 C 
ATOM     15  C   UNL     1      -2.296   3.640 -24.818  0.00  0.00    +0.031 C 
ATOM     16  C   UNL     1      -1.090   3.235 -24.451  0.00  0.00    +0.016 C 
ATOM     17  O   UNL     1       0.663   1.357 -20.629  0.00  0.00    -0.245 OA
ATOM     18  C   UNL     1      -0.878   2.719 -23.253  0.00  0.00    +0.069 C 
ENDROOT
TORSDOF 0
ENDMDL
MODEL 3
REMARK VINA RESULT:    -9.751      1.185      4.406
REMARK INTER + INTRA:          -9.751
REMARK INTER:                  -9.751
REMARK INTRA:                   0.000
REMARK UNBOUND:                 0.000
REMARK  Name = C=C1C(=O)O[C@@H]2[C@@H]1CCC(C)=CCC[C@@]1(C)O[C@H]21                  ZINC000253986906
REMARK  2 active torsions:
REMARK  status: ('A' for Active; 'I' for Inactive)
REMARK    1  A    between atoms: C_10  and  C_11
REMARK    2  A    between atoms: C_15  and  C_16
REMARK                            x       y       z     vdW  Elec       q    Type
REMARK                         _______ _______ _______ _____ _____    ______ ____
ROOT
ATOM      1  C   UNL     1      -5.195   3.452 -22.527  0.00  0.00    +0.020 C 
ATOM      2  C   UNL     1      -4.082   3.502 -23.171  0.00  0.00    +0.036 C 
ATOM      3  C   UNL     1      -3.894   4.044 -24.327  0.00  0.00    +0.335 C 
ATOM      4  O   UNL     1      -2.657   3.895 -24.642  0.00  0.00    -0.455 OA
ATOM      5  C   UNL     1      -2.073   3.260 -23.684  0.00  0.00    +0.216 C 
ATOM      6  C   UNL     1      -0.887   2.856 -23.474  0.00  0.00    +0.192 C 
ATOM      7  O   UNL     1       0.272   2.399 -23.149  0.00  0.00    -0.361 OA
ATOM      8  C   UNL     1       0.117   3.009 -24.269  0.00  0.00    +0.097 C 
ATOM      9  C   UNL     1      -0.306   3.645 -25.308  0.00  0.00    +0.044 C 
ATOM     10  C   UNL     1       1.269   2.805 -24.434  0.00  0.00    +0.041 C 
ATOM     11  C   UNL     1       1.737   2.131 -23.343  0.00  0.00    +0.030 C 
ATOM     12  C   UNL     1       0.823   1.817 -22.277  0.00  0.00    -0.028 C 
ATOM     13  C   UNL     1      -0.468   2.200 -22.394  0.00  0.00    -0.077 C 
ATOM     14  C   UNL     1      -0.120   1.571 -21.331  0.00  0.00    +0.039 C 
ATOM     15  C   UNL     1      -1.360   1.963 -21.490  0.00  0.00    +0.031 C 
ATOM     16  C   UNL     1      -2.606   2.370 -21.678  0.00  0.00    +0.016 C 
ATOM     17  O   UNL     1      -4.794   4.632 -25.039  0.00  0.00    -0.245 OA
ATOM     18  C   UNL     1      -2.955   3.017 -22.775  0.00  0.00    +0.069 C 
ENDROOT
TORSDOF 0
ENDMDL
MODEL 4
REMARK VINA RESULT:    -9.558      1.323      4.968
REMARK INTER + INTRA:          -9.558
REMARK INTER:                  -9.558
REMARK INTRA:                   0.000
REMARK UNBOUND:                 0.000
REMARK  Name = C=C1C(=O)O[C@@H]2[C@@H]1CCC(C)=CCC[C@@]1(C)O[C@H]21                  ZINC000253986906
REMARK  2 active torsions:
REMARK  status: ('A' for Active; 'I' for Inactive)
REMARK    1  A    between atoms: C_10  and  C_11
REMARK    2  A    between atoms: C_15  and  C_16
REMARK                            x       y       z     vdW  Elec       q    Type
REMARK                         _______ _______ _______ _____ _____    ______ ____
ROOT
ATOM      1  C   UNL     1      -5.187   4.120 -24.268  0.00  0.00    +0.020 C 
ATOM      2  C   UNL     1      -4.241   3.582 -23.581  0.00  0.00    +0.036 C 
ATOM      3  C   UNL     1      -4.360   3.035 -22.419  0.00  0.00    +0.335 C 
ATOM      4  O   UNL     1      -3.201   2.612 -22.055  0.00  0.00    -0.455 OA
ATOM      5  C   UNL     1      -2.360   2.895 -22.990  0.00  0.00    +0.216 C 
ATOM      6  C   UNL     1      -1.114   2.713 -23.154  0.00  0.00    +0.192 C 
ATOM      7  O   UNL     1       0.137   2.587 -23.435  0.00  0.00    -0.361 OA
ATOM      8  C   UNL     1      -0.317   2.135 -22.322  0.00  0.00    +0.097 C 
ATOM      9  C   UNL     1      -1.018   1.779 -21.299  0.00  0.00    +0.044 C 
ATOM     10  C   UNL     1       0.795   1.797 -22.112  0.00  0.00    +0.041 C 
ATOM     11  C   UNL     1       1.556   2.165 -23.185  0.00  0.00    +0.030 C 
ATOM     12  C   UNL     1       0.922   2.840 -24.285  0.00  0.00    -0.028 C 
ATOM     13  C   UNL     1      -0.406   3.087 -24.218  0.00  0.00    -0.077 C 
ATOM     14  C   UNL     1       0.227   3.470 -25.267  0.00  0.00    +0.039 C 
ATOM     15  C   UNL     1      -1.061   3.687 -25.155  0.00  0.00    +0.031 C 
ATOM     16  C   UNL     1      -2.362   3.893 -25.017  0.00  0.00    +0.016 C 
ATOM     17  O   UNL     1      -5.453   2.932 -21.741  0.00  0.00    -0.245 OA
ATOM     18  C   UNL     1      -3.004   3.494 -23.933  0.00  0.00    +0.069 C 
ENDROOT
TORSDOF 0
ENDMDL
MODEL 5
REMARK VINA RESULT:    -8.843      1.626      2.744
REMARK INTER + INTRA:          -8.843
REMARK INTER:                  -8.843
REMARK INTRA:                   0.000
REMARK UNBOUND:                 0.000
REMARK  Name = C=C1C(=O)O[C@@H]2[C@@H]1CCC(C)=CCC[C@@]1(C)O[C@H]21                  ZINC000253986906
REMARK  2 active torsions:
REMARK  status: ('A' for Active; 'I' for Inactive)
REMARK    1  A    between atoms: C_10  and  C_11
REMARK    2  A    between atoms: C_15  and  C_16
REMARK                            x       y       z     vdW  Elec       q    Type
REMARK                         _______ _______ _______ _____ _____    ______ ____
ROOT
ATOM      1  C   UNL     1       3.401   0.999 -21.880  0.00  0.00    +0.020 C 
ATOM      2  C   UNL     1       2.578   1.594 -22.670  0.00  0.00    +0.036 C 
ATOM      3  C   UNL     1       2.862   2.111 -23.818  0.00  0.00    +0.335 C 
ATOM      4  O   UNL     1       1.785   2.613 -24.308  0.00  0.00    -0.455 OA
ATOM      5  C   UNL     1       0.829   2.411 -23.466  0.00  0.00    +0.216 C 
ATOM      6  C   UNL     1      -0.410   2.689 -23.440  0.00  0.00    +0.192 C 
ATOM      7  O   UNL     1      -1.670   2.913 -23.297  0.00  0.00    -0.361 OA
ATOM      8  C   UNL     1      -1.066   3.310 -24.359  0.00  0.00    +0.097 C 
ATOM      9  C   UNL     1      -0.235   3.595 -25.304  0.00  0.00    +0.044 C 
ATOM     10  C   UNL     1      -2.120   3.727 -24.691  0.00  0.00    +0.041 C 
ATOM     11  C   UNL     1      -3.018   3.436 -23.703  0.00  0.00    +0.030 C 
ATOM     12  C   UNL     1      -2.558   2.735 -22.535  0.00  0.00    -0.028 C 
ATOM     13  C   UNL     1      -1.254   2.387 -22.455  0.00  0.00    -0.077 C 
ATOM     14  C   UNL     1      -2.023   2.071 -21.477  0.00  0.00    +0.039 C 
ATOM     15  C   UNL     1      -0.751   1.757 -21.447  0.00  0.00    +0.031 C 
ATOM     16  C   UNL     1       0.537   1.451 -21.443  0.00  0.00    +0.016 C 
ATOM     17  O   UNL     1       4.026   2.119 -24.374  0.00  0.00    -0.245 OA
ATOM     18  C   UNL     1       1.321   1.781 -22.454  0.00  0.00    +0.069 C 
ENDROOT
TORSDOF 0
ENDMDL
MODEL 6
REMARK VINA RESULT:    -8.405      1.798      5.219
REMARK INTER + INTRA:          -8.405
REMARK INTER:                  -8.405
REMARK INTRA:                   0.000
REMARK UNBOUND:                 0.000
REMARK  Name = C=C1C(=O)O[C@@H]2[C@@H]1CCC(C)=CCC[C@@]1(C)O[C@H]21                  ZINC000253986906
REMARK  2 active torsions:
REMARK  status: ('A' for Active; 'I' for Inactive)
REMARK    1  A    between atoms: C_10  and  C_11
REMARK    2  A    between atoms: C_15  and  C_16
REMARK                            x       y       z     vdW  Elec       q    Type
REMARK                         _______ _______ _______ _____ _____    ______ ____
ROOT
ATOM      1  C   UNL     1      -3.253   2.945 -22.651  0.00  0.00    +0.020 C 
ATOM      2  C   UNL     1      -2.138   2.941 -23.293  0.00  0.00    +0.036 C 
ATOM      3  C   UNL     1      -1.955   3.350 -24.503  0.00  0.00    +0.335 C 
ATOM      4  O   UNL     1      -0.713   3.189 -24.796  0.00  0.00    -0.455 OA
ATOM      5  C   UNL     1      -0.122   2.680 -23.769  0.00  0.00    +0.216 C 
ATOM      6  C   UNL     1       1.070   2.325 -23.511  0.00  0.00    +0.192 C 
ATOM      7  O   UNL     1       2.235   1.932 -23.131  0.00  0.00    -0.361 OA
ATOM      8  C   UNL     1       2.075   2.405 -24.315  0.00  0.00    +0.097 C 
ATOM      9  C   UNL     1       1.645   2.909 -25.422  0.00  0.00    +0.044 C 
ATOM     10  C   UNL     1       3.231   2.205 -24.452  0.00  0.00    +0.041 C 
ATOM     11  C   UNL     1       3.706   1.671 -23.289  0.00  0.00    +0.030 C 
ATOM     12  C   UNL     1       2.793   1.464 -22.197  0.00  0.00    -0.028 C 
ATOM     13  C   UNL     1       1.495   1.807 -22.361  0.00  0.00    -0.077 C 
ATOM     14  C   UNL     1       1.850   1.311 -21.231  0.00  0.00    +0.039 C 
ATOM     15  C   UNL     1       0.604   1.659 -21.438  0.00  0.00    +0.031 C 
ATOM     16  C   UNL     1      -0.648   2.018 -21.675  0.00  0.00    +0.016 C 
ATOM     17  O   UNL     1      -2.862   3.835 -25.281  0.00  0.00    -0.245 OA
ATOM     18  C   UNL     1      -1.004   2.528 -22.841  0.00  0.00    +0.069 C 
ENDROOT
TORSDOF 0
ENDMDL
MODEL 7
REMARK VINA RESULT:    -8.244      2.334      5.590
REMARK INTER + INTRA:          -8.244
REMARK INTER:                  -8.244
REMARK INTRA:                   0.000
REMARK UNBOUND:                 0.000
REMARK  Name = C=C1C(=O)O[C@@H]2[C@@H]1CCC(C)=CCC[C@@]1(C)O[C@H]21                  ZINC000253986906
REMARK  2 active torsions:
REMARK  status: ('A' for Active; 'I' for Inactive)
REMARK    1  A    between atoms: C_10  and  C_11
REMARK    2  A    between atoms: C_15  and  C_16
REMARK                            x       y       z     vdW  Elec       q    Type
REMARK                         _______ _______ _______ _____ _____    ______ ____
ROOT
ATOM      1  C   UNL     1      -2.804   2.616 -22.598  0.00  0.00    +0.020 C 
ATOM      2  C   UNL     1      -1.671   3.135 -22.918  0.00  0.00    +0.036 C 
ATOM      3  C   UNL     1      -1.492   4.174 -23.663  0.00  0.00    +0.335 C 
ATOM      4  O   UNL     1      -0.228   4.387 -23.755  0.00  0.00    -0.455 OA
ATOM      5  C   UNL     1       0.382   3.482 -23.068  0.00  0.00    +0.216 C 
ATOM      6  C   UNL     1       1.600   3.222 -22.819  0.00  0.00    +0.192 C 
ATOM      7  O   UNL     1       2.792   2.857 -22.495  0.00  0.00    -0.361 OA
ATOM      8  C   UNL     1       2.620   3.884 -23.248  0.00  0.00    +0.097 C 
ATOM      9  C   UNL     1       2.174   4.853 -23.973  0.00  0.00    +0.044 C 
ATOM     10  C   UNL     1       3.798   3.966 -23.249  0.00  0.00    +0.041 C 
ATOM     11  C   UNL     1       4.291   2.947 -22.485  0.00  0.00    +0.030 C 
ATOM     12  C   UNL     1       3.367   2.033 -21.869  0.00  0.00    -0.028 C 
ATOM     13  C   UNL     1       2.042   2.216 -22.067  0.00  0.00    -0.077 C 
ATOM     14  C   UNL     1       2.412   1.229 -21.333  0.00  0.00    +0.039 C 
ATOM     15  C   UNL     1       1.139   1.448 -21.555  0.00  0.00    +0.031 C 
ATOM     16  C   UNL     1      -0.140   1.692 -21.795  0.00  0.00    +0.016 C 
ATOM     17  O   UNL     1      -2.423   4.874 -24.217  0.00  0.00    -0.245 OA
ATOM     18  C   UNL     1      -0.511   2.709 -22.552  0.00  0.00    +0.069 C 
ENDROOT
TORSDOF 0
ENDMDL
MODEL 8
REMARK VINA RESULT:    -8.135      3.163      6.593
REMARK INTER + INTRA:          -8.135
REMARK INTER:                  -8.135
REMARK INTRA:                   0.000
REMARK UNBOUND:                 0.000
REMARK  Name = C=C1C(=O)O[C@@H]2[C@@H]1CCC(C)=CCC[C@@]1(C)O[C@H]21                  ZINC000253986906
REMARK  2 active torsions:
REMARK  status: ('A' for Active; 'I' for Inactive)
REMARK    1  A    between atoms: C_10  and  C_11
REMARK    2  A    between atoms: C_15  and  C_16
REMARK                            x       y       z     vdW  Elec       q    Type
REMARK                         _______ _______ _______ _____ _____    ______ ____
ROOT
ATOM      1  C   UNL     1      -1.206   4.872 -23.607  0.00  0.00    +0.020 C 
ATOM      2  C   UNL     1      -0.391   3.908 -23.356  0.00  0.00    +0.036 C 
ATOM      3  C   UNL     1      -0.711   2.675 -23.150  0.00  0.00    +0.335 C 
ATOM      4  O   UNL     1       0.369   2.012 -22.933  0.00  0.00    -0.455 OA
ATOM      5  C   UNL     1       1.362   2.831 -23.002  0.00  0.00    +0.216 C 
ATOM      6  C   UNL     1       2.621   2.720 -22.873  0.00  0.00    +0.192 C 
ATOM      7  O   UNL     1       3.904   2.735 -22.766  0.00  0.00    -0.361 OA
ATOM      8  C   UNL     1       3.262   1.632 -22.613  0.00  0.00    +0.097 C 
ATOM      9  C   UNL     1       2.392   0.685 -22.509  0.00  0.00    +0.044 C 
ATOM     10  C   UNL     1       4.323   1.147 -22.431  0.00  0.00    +0.041 C 
ATOM     11  C   UNL     1       5.261   2.134 -22.537  0.00  0.00    +0.030 C 
ATOM     12  C   UNL     1       4.827   3.474 -22.827  0.00  0.00    -0.028 C 
ATOM     13  C   UNL     1       3.504   3.710 -22.984  0.00  0.00    -0.077 C 
ATOM     14  C   UNL     1       4.312   4.701 -23.102  0.00  0.00    +0.039 C 
ATOM     15  C   UNL     1       3.021   4.878 -23.246  0.00  0.00    +0.031 C 
ATOM     16  C   UNL     1       1.714   5.029 -23.387  0.00  0.00    +0.016 C 
ATOM     17  O   UNL     1      -1.908   2.194 -23.162  0.00  0.00    -0.245 OA
ATOM     18  C   UNL     1       0.891   4.002 -23.264  0.00  0.00    +0.069 C 
ENDROOT
TORSDOF 0
ENDMDL
