MODEL 1
REMARK VINA RESULT:    -8.794      0.000      0.000
REMARK INTER + INTRA:         -11.837
REMARK INTER:                 -11.308
REMARK INTRA:                  -0.528
REMARK UNBOUND:                -0.729
REMARK  Name = ZINC000039386789
REMARK  7 active torsions:
REMARK  status: ('A' for Active; 'I' for Inactive)
REMARK    1  A    between atoms: C_1  and  O_2
REMARK    2  A    between atoms: O_2  and  C_3
REMARK    3  A    between atoms: C_11  and  C_12
REMARK    4  A    between atoms: C_12  and  C_13
REMARK    5  A    between atoms: C_16  and  O_17
REMARK    6  A    between atoms: O_17  and  C_18
REMARK    7  A    between atoms: C_19  and  O_20
REMARK                            x       y       z     vdW  Elec       q    Type
REMARK                         _______ _______ _______ _____ _____    ______ ____
ROOT
ATOM      1  C   UNL     1      -4.405   3.378 -22.287  0.00  0.00    +0.098 C 
ATOM      2  C   UNL     1      -3.404   2.979 -21.560  0.00  0.00    +0.019 C 
ATOM      3  C   UNL     1      -2.238   2.794 -22.103  0.00  0.00    +0.066 C 
ATOM      4  C   UNL     1      -2.073   3.008 -23.375  0.00  0.00    -0.018 C 
ATOM      5  C   UNL     1      -3.073   3.407 -24.103  0.00  0.00    -0.052 C 
ATOM      6  C   UNL     1      -2.909   3.621 -25.374  0.00  0.00    +0.082 C 
ATOM      7  C   UNL     1      -1.743   3.436 -25.918  0.00  0.00    +0.134 C 
ATOM      8  N   UNL     1      -0.741   3.037 -25.191  0.00  0.00    +0.233 N 
ATOM      9  H   UNL     1      -0.539   2.108 -25.561  0.00  0.00    +0.202 HD
ATOM     10  H   UNL     1      -0.014   3.746 -25.278  0.00  0.00    +0.202 HD
ATOM     11  C   UNL     1      -0.907   2.823 -23.919  0.00  0.00    +0.094 C 
ATOM     12  C   UNL     1      -4.239   3.592 -23.559  0.00  0.00    +0.104 C 
ENDROOT
BRANCH   1  14
ATOM     13  C   UNL     1      -6.445   2.601 -21.735  0.00  0.00    +0.276 C 
ATOM     14  O   UNL     1      -5.571   3.563 -21.742  0.00  0.00    -0.499 OA
ENDBRANCH   1  14
BRANCH  11  15
ATOM     15  C   UNL     1       0.094   2.425 -23.192  0.00  0.00    +0.094 C 
BRANCH  15  16
ATOM     16  C   UNL     1       1.212   3.090 -23.203  0.00  0.00    -0.038 A 
ATOM     17  C   UNL     1       2.344   2.457 -23.147  0.00  0.00    +0.007 A 
ATOM     18  C   UNL     1       3.462   3.121 -23.158  0.00  0.00    +0.049 A 
ATOM     19  C   UNL     1       3.445   4.420 -23.226  0.00  0.00    +0.161 A 
ATOM     20  C   UNL     1       2.311   5.052 -23.283  0.00  0.00    +0.159 A 
ATOM     21  C   UNL     1       1.194   4.387 -23.271  0.00  0.00    +0.053 A 
BRANCH  20  22
ATOM     22  O   UNL     1       2.294   6.351 -23.351  0.00  0.00    -0.503 OA
ATOM     23  H   UNL     1       1.755   6.781 -23.986  0.00  0.00    +0.292 HD
ENDBRANCH  20  22
BRANCH  19  24
ATOM     24  O   UNL     1       4.562   5.085 -23.237  0.00  0.00    -0.491 OA
ATOM     25  C   UNL     1       5.695   4.453 -23.162  0.00  0.00    +0.277 C 
ENDBRANCH  19  24
ENDBRANCH  15  16
ENDBRANCH  11  15
TORSDOF 5
ENDMDL
MODEL 2
REMARK VINA RESULT:    -8.736      1.368      2.280
REMARK INTER + INTRA:         -11.764
REMARK INTER:                 -11.001
REMARK INTRA:                  -0.763
REMARK UNBOUND:                -0.729
REMARK  Name = ZINC000039386789
REMARK  7 active torsions:
REMARK  status: ('A' for Active; 'I' for Inactive)
REMARK    1  A    between atoms: C_1  and  O_2
REMARK    2  A    between atoms: O_2  and  C_3
REMARK    3  A    between atoms: C_11  and  C_12
REMARK    4  A    between atoms: C_12  and  C_13
REMARK    5  A    between atoms: C_16  and  O_17
REMARK    6  A    between atoms: O_17  and  C_18
REMARK    7  A    between atoms: C_19  and  O_20
REMARK                            x       y       z     vdW  Elec       q    Type
REMARK                         _______ _______ _______ _____ _____    ______ ____
ROOT
ATOM      1  C   UNL     1      -3.411   3.688 -23.905  0.00  0.00    +0.098 C 
ATOM      2  C   UNL     1      -2.493   4.040 -24.756  0.00  0.00    +0.019 C 
ATOM      3  C   UNL     1      -1.261   3.666 -24.577  0.00  0.00    +0.066 C 
ATOM      4  C   UNL     1      -0.947   2.940 -23.546  0.00  0.00    -0.018 C 
ATOM      5  C   UNL     1      -1.863   2.587 -22.694  0.00  0.00    -0.052 C 
ATOM      6  C   UNL     1      -1.549   1.861 -21.663  0.00  0.00    +0.082 C 
ATOM      7  C   UNL     1      -0.317   1.487 -21.483  0.00  0.00    +0.134 C 
ATOM      8  N   UNL     1       0.600   1.839 -22.334  0.00  0.00    +0.233 N 
ATOM      9  H   UNL     1       1.202   2.455 -21.788  0.00  0.00    +0.202 HD
ATOM     10  H   UNL     1       1.012   0.979 -22.695  0.00  0.00    +0.202 HD
ATOM     11  C   UNL     1       0.285   2.565 -23.365  0.00  0.00    +0.094 C 
ATOM     12  C   UNL     1      -3.095   2.962 -22.874  0.00  0.00    +0.104 C 
ENDROOT
BRANCH   1  14
ATOM     13  C   UNL     1      -5.546   3.770 -23.199  0.00  0.00    +0.276 C 
ATOM     14  O   UNL     1      -4.643   4.062 -24.085  0.00  0.00    -0.499 OA
ENDBRANCH   1  14
BRANCH  11  15
ATOM     15  C   UNL     1       1.203   2.917 -24.217  0.00  0.00    +0.094 C 
BRANCH  15  16
ATOM     16  C   UNL     1       2.268   3.539 -23.805  0.00  0.00    -0.038 A 
ATOM     17  C   UNL     1       3.419   2.936 -23.821  0.00  0.00    +0.007 A 
ATOM     18  C   UNL     1       4.484   3.557 -23.409  0.00  0.00    +0.049 A 
ATOM     19  C   UNL     1       4.397   4.782 -22.981  0.00  0.00    +0.161 A 
ATOM     20  C   UNL     1       3.245   5.384 -22.964  0.00  0.00    +0.159 A 
ATOM     21  C   UNL     1       2.181   4.762 -23.376  0.00  0.00    +0.053 A 
BRANCH  20  22
ATOM     22  O   UNL     1       3.159   6.608 -22.535  0.00  0.00    -0.503 OA
ATOM     23  H   UNL     1       3.296   7.323 -23.126  0.00  0.00    +0.292 HD
ENDBRANCH  20  22
BRANCH  19  24
ATOM     24  O   UNL     1       5.462   5.403 -22.569  0.00  0.00    -0.491 OA
ATOM     25  C   UNL     1       6.634   5.034 -22.992  0.00  0.00    +0.277 C 
ENDBRANCH  19  24
ENDBRANCH  15  16
ENDBRANCH  11  15
TORSDOF 5
ENDMDL
MODEL 3
REMARK VINA RESULT:    -8.479      1.411      6.968
REMARK INTER + INTRA:         -11.438
REMARK INTER:                 -10.674
REMARK INTRA:                  -0.765
REMARK UNBOUND:                -0.729
REMARK  Name = ZINC000039386789
REMARK  7 active torsions:
REMARK  status: ('A' for Active; 'I' for Inactive)
REMARK    1  A    between atoms: C_1  and  O_2
REMARK    2  A    between atoms: O_2  and  C_3
REMARK    3  A    between atoms: C_11  and  C_12
REMARK    4  A    between atoms: C_12  and  C_13
REMARK    5  A    between atoms: C_16  and  O_17
REMARK    6  A    between atoms: O_17  and  C_18
REMARK    7  A    between atoms: C_19  and  O_20
REMARK                            x       y       z     vdW  Elec       q    Type
REMARK                         _______ _______ _______ _____ _____    ______ ____
ROOT
ATOM      1  C   UNL     1       4.258   5.087 -22.867  0.00  0.00    +0.098 C 
ATOM      2  C   UNL     1       3.196   5.838 -22.863  0.00  0.00    +0.019 C 
ATOM      3  C   UNL     1       2.086   5.397 -23.377  0.00  0.00    +0.066 C 
ATOM      4  C   UNL     1       2.038   4.206 -23.896  0.00  0.00    -0.018 C 
ATOM      5  C   UNL     1       3.099   3.455 -23.900  0.00  0.00    -0.052 C 
ATOM      6  C   UNL     1       3.052   2.265 -24.417  0.00  0.00    +0.082 C 
ATOM      7  C   UNL     1       1.942   1.824 -24.932  0.00  0.00    +0.134 C 
ATOM      8  N   UNL     1       0.880   2.574 -24.928  0.00  0.00    +0.233 N 
ATOM      9  H   UNL     1       0.719   2.755 -25.919  0.00  0.00    +0.202 HD
ATOM     10  H   UNL     1       0.160   2.061 -24.421  0.00  0.00    +0.202 HD
ATOM     11  C   UNL     1       0.929   3.765 -24.410  0.00  0.00    +0.094 C 
ATOM     12  C   UNL     1       4.209   3.896 -23.385  0.00  0.00    +0.104 C 
ENDROOT
BRANCH   1  14
ATOM     13  C   UNL     1       6.466   4.851 -22.500  0.00  0.00    +0.276 C 
ATOM     14  O   UNL     1       5.367   5.528 -22.352  0.00  0.00    -0.499 OA
ENDBRANCH   1  14
BRANCH  11  15
ATOM     15  C   UNL     1      -0.133   4.516 -24.407  0.00  0.00    +0.094 C 
BRANCH  15  16
ATOM     16  C   UNL     1      -1.221   4.100 -23.828  0.00  0.00    -0.038 A 
ATOM     17  C   UNL     1      -2.267   3.813 -24.543  0.00  0.00    +0.007 A 
ATOM     18  C   UNL     1      -3.355   3.398 -23.964  0.00  0.00    +0.049 A 
ATOM     19  C   UNL     1      -3.395   3.270 -22.671  0.00  0.00    +0.161 A 
ATOM     20  C   UNL     1      -2.348   3.557 -21.957  0.00  0.00    +0.159 A 
ATOM     21  C   UNL     1      -1.261   3.972 -22.536  0.00  0.00    +0.053 A 
BRANCH  20  22
ATOM     22  O   UNL     1      -2.388   3.428 -20.664  0.00  0.00    -0.503 OA
ATOM     23  H   UNL     1      -2.969   3.962 -20.157  0.00  0.00    +0.292 HD
ENDBRANCH  20  22
BRANCH  19  24
ATOM     24  O   UNL     1      -4.483   2.854 -22.093  0.00  0.00    -0.491 OA
ATOM     25  C   UNL     1      -5.627   3.391 -22.397  0.00  0.00    +0.277 C 
ENDBRANCH  19  24
ENDBRANCH  15  16
ENDBRANCH  11  15
TORSDOF 5
ENDMDL
MODEL 4
REMARK VINA RESULT:    -8.317      2.053      6.805
REMARK INTER + INTRA:         -11.234
REMARK INTER:                 -10.461
REMARK INTRA:                  -0.773
REMARK UNBOUND:                -0.729
REMARK  Name = ZINC000039386789
REMARK  7 active torsions:
REMARK  status: ('A' for Active; 'I' for Inactive)
REMARK    1  A    between atoms: C_1  and  O_2
REMARK    2  A    between atoms: O_2  and  C_3
REMARK    3  A    between atoms: C_11  and  C_12
REMARK    4  A    between atoms: C_12  and  C_13
REMARK    5  A    between atoms: C_16  and  O_17
REMARK    6  A    between atoms: O_17  and  C_18
REMARK    7  A    between atoms: C_19  and  O_20
REMARK                            x       y       z     vdW  Elec       q    Type
REMARK                         _______ _______ _______ _____ _____    ______ ____
ROOT
ATOM      1  C   UNL     1       3.963   1.479 -22.658  0.00  0.00    +0.098 C 
ATOM      2  C   UNL     1       2.981   0.910 -23.293  0.00  0.00    +0.019 C 
ATOM      3  C   UNL     1       2.031   1.634 -23.805  0.00  0.00    +0.066 C 
ATOM      4  C   UNL     1       2.062   2.927 -23.682  0.00  0.00    -0.018 C 
ATOM      5  C   UNL     1       3.043   3.498 -23.048  0.00  0.00    -0.052 C 
ATOM      6  C   UNL     1       3.074   4.791 -22.924  0.00  0.00    +0.082 C 
ATOM      7  C   UNL     1       2.123   5.515 -23.436  0.00  0.00    +0.134 C 
ATOM      8  N   UNL     1       1.142   4.946 -24.071  0.00  0.00    +0.233 N 
ATOM      9  H   UNL     1       0.334   5.145 -23.480  0.00  0.00    +0.202 HD
ATOM     10  H   UNL     1       1.139   5.331 -25.015  0.00  0.00    +0.202 HD
ATOM     11  C   UNL     1       1.112   3.652 -24.194  0.00  0.00    +0.094 C 
ATOM     12  C   UNL     1       3.993   2.773 -22.536  0.00  0.00    +0.104 C 
ENDROOT
BRANCH   1  14
ATOM     13  C   UNL     1       4.865   0.409 -20.895  0.00  0.00    +0.276 C 
ATOM     14  O   UNL     1       4.914   0.755 -22.147  0.00  0.00    -0.499 OA
ENDBRANCH   1  14
BRANCH  11  15
ATOM     15  C   UNL     1       0.130   3.083 -24.829  0.00  0.00    +0.094 C 
BRANCH  15  16
ATOM     16  C   UNL     1      -1.094   3.259 -24.426  0.00  0.00    -0.038 A 
ATOM     17  C   UNL     1      -1.451   2.862 -23.242  0.00  0.00    +0.007 A 
ATOM     18  C   UNL     1      -2.675   3.038 -22.839  0.00  0.00    +0.049 A 
ATOM     19  C   UNL     1      -3.541   3.611 -23.622  0.00  0.00    +0.161 A 
ATOM     20  C   UNL     1      -3.182   4.007 -24.807  0.00  0.00    +0.159 A 
ATOM     21  C   UNL     1      -1.959   3.831 -25.208  0.00  0.00    +0.053 A 
BRANCH  20  22
ATOM     22  O   UNL     1      -4.048   4.580 -25.589  0.00  0.00    -0.503 OA
ATOM     23  H   UNL     1      -4.762   5.066 -25.224  0.00  0.00    +0.292 HD
ENDBRANCH  20  22
BRANCH  19  24
ATOM     24  O   UNL     1      -4.764   3.787 -23.219  0.00  0.00    -0.491 OA
ATOM     25  C   UNL     1      -5.127   3.370 -22.043  0.00  0.00    +0.277 C 
ENDBRANCH  19  24
ENDBRANCH  15  16
ENDBRANCH  11  15
TORSDOF 5
ENDMDL
MODEL 5
REMARK VINA RESULT:    -8.116      1.667      7.017
REMARK INTER + INTRA:         -10.980
REMARK INTER:                 -10.252
REMARK INTRA:                  -0.728
REMARK UNBOUND:                -0.729
REMARK  Name = ZINC000039386789
REMARK  7 active torsions:
REMARK  status: ('A' for Active; 'I' for Inactive)
REMARK    1  A    between atoms: C_1  and  O_2
REMARK    2  A    between atoms: O_2  and  C_3
REMARK    3  A    between atoms: C_11  and  C_12
REMARK    4  A    between atoms: C_12  and  C_13
REMARK    5  A    between atoms: C_16  and  O_17
REMARK    6  A    between atoms: O_17  and  C_18
REMARK    7  A    between atoms: C_19  and  O_20
REMARK                            x       y       z     vdW  Elec       q    Type
REMARK                         _______ _______ _______ _____ _____    ______ ____
ROOT
ATOM      1  C   UNL     1       4.650   4.499 -22.708  0.00  0.00    +0.098 C 
ATOM      2  C   UNL     1       3.677   5.341 -22.896  0.00  0.00    +0.019 C 
ATOM      3  C   UNL     1       2.631   4.984 -23.581  0.00  0.00    +0.066 C 
ATOM      4  C   UNL     1       2.558   3.785 -24.077  0.00  0.00    -0.018 C 
ATOM      5  C   UNL     1       3.530   2.942 -23.890  0.00  0.00    -0.052 C 
ATOM      6  C   UNL     1       3.458   1.744 -24.386  0.00  0.00    +0.082 C 
ATOM      7  C   UNL     1       2.412   1.386 -25.070  0.00  0.00    +0.134 C 
ATOM      8  N   UNL     1       1.439   2.228 -25.258  0.00  0.00    +0.233 N 
ATOM      9  H   UNL     1       1.460   2.389 -26.265  0.00  0.00    +0.202 HD
ATOM     10  H   UNL     1       0.600   1.799 -24.869  0.00  0.00    +0.202 HD
ATOM     11  C   UNL     1       1.512   3.427 -24.762  0.00  0.00    +0.094 C 
ATOM     12  C   UNL     1       4.576   3.300 -23.205  0.00  0.00    +0.104 C 
ENDROOT
BRANCH   1  14
ATOM     13  C   UNL     1       6.420   5.860 -22.421  0.00  0.00    +0.276 C 
ATOM     14  O   UNL     1       5.696   4.857 -22.024  0.00  0.00    -0.499 OA
ENDBRANCH   1  14
BRANCH  11  15
ATOM     15  C   UNL     1       0.539   4.268 -24.950  0.00  0.00    +0.094 C 
BRANCH  15  16
ATOM     16  C   UNL     1      -0.647   4.005 -24.487  0.00  0.00    -0.038 A 
ATOM     17  C   UNL     1      -0.897   4.151 -23.221  0.00  0.00    +0.007 A 
ATOM     18  C   UNL     1      -2.083   3.887 -22.758  0.00  0.00    +0.049 A 
ATOM     19  C   UNL     1      -3.019   3.478 -23.563  0.00  0.00    +0.161 A 
ATOM     20  C   UNL     1      -2.767   3.332 -24.830  0.00  0.00    +0.159 A 
ATOM     21  C   UNL     1      -1.582   3.596 -25.292  0.00  0.00    +0.053 A 
BRANCH  20  22
ATOM     22  O   UNL     1      -3.703   2.923 -25.635  0.00  0.00    -0.503 OA
ATOM     23  H   UNL     1      -3.991   3.472 -26.338  0.00  0.00    +0.292 HD
ENDBRANCH  20  22
BRANCH  19  24
ATOM     24  O   UNL     1      -4.205   3.214 -23.100  0.00  0.00    -0.491 OA
ATOM     25  C   UNL     1      -4.376   3.011 -21.828  0.00  0.00    +0.277 C 
ENDBRANCH  19  24
ENDBRANCH  15  16
ENDBRANCH  11  15
TORSDOF 5
ENDMDL
MODEL 6
REMARK VINA RESULT:    -8.039      2.206      3.413
REMARK INTER + INTRA:         -10.883
REMARK INTER:                 -10.309
REMARK INTRA:                  -0.574
REMARK UNBOUND:                -0.729
REMARK  Name = ZINC000039386789
REMARK  7 active torsions:
REMARK  status: ('A' for Active; 'I' for Inactive)
REMARK    1  A    between atoms: C_1  and  O_2
REMARK    2  A    between atoms: O_2  and  C_3
REMARK    3  A    between atoms: C_11  and  C_12
REMARK    4  A    between atoms: C_12  and  C_13
REMARK    5  A    between atoms: C_16  and  O_17
REMARK    6  A    between atoms: O_17  and  C_18
REMARK    7  A    between atoms: C_19  and  O_20
REMARK                            x       y       z     vdW  Elec       q    Type
REMARK                         _______ _______ _______ _____ _____    ______ ____
ROOT
ATOM      1  C   UNL     1      -2.609   3.660 -23.933  0.00  0.00    +0.098 C 
ATOM      2  C   UNL     1      -1.632   3.736 -24.788  0.00  0.00    +0.019 C 
ATOM      3  C   UNL     1      -0.469   3.237 -24.492  0.00  0.00    +0.066 C 
ATOM      4  C   UNL     1      -0.283   2.662 -23.341  0.00  0.00    -0.018 C 
ATOM      5  C   UNL     1      -1.259   2.586 -22.486  0.00  0.00    -0.052 C 
ATOM      6  C   UNL     1      -1.073   2.012 -21.335  0.00  0.00    +0.082 C 
ATOM      7  C   UNL     1       0.090   1.513 -21.038  0.00  0.00    +0.134 C 
ATOM      8  N   UNL     1       1.067   1.588 -21.893  0.00  0.00    +0.233 N 
ATOM      9  H   UNL     1       1.736   2.202 -21.430  0.00  0.00    +0.202 HD
ATOM     10  H   UNL     1       1.363   0.631 -22.086  0.00  0.00    +0.202 HD
ATOM     11  C   UNL     1       0.880   2.163 -23.044  0.00  0.00    +0.094 C 
ATOM     12  C   UNL     1      -2.422   3.086 -22.782  0.00  0.00    +0.104 C 
ENDROOT
BRANCH   1  14
ATOM     13  C   UNL     1      -4.199   4.127 -25.457  0.00  0.00    +0.276 C 
ATOM     14  O   UNL     1      -3.772   4.160 -24.230  0.00  0.00    -0.499 OA
ENDBRANCH   1  14
BRANCH  11  15
ATOM     15  C   UNL     1       1.857   2.238 -23.899  0.00  0.00    +0.094 C 
BRANCH  15  16
ATOM     16  C   UNL     1       3.055   2.539 -23.492  0.00  0.00    -0.038 A 
ATOM     17  C   UNL     1       3.419   3.783 -23.410  0.00  0.00    +0.007 A 
ATOM     18  C   UNL     1       4.617   4.084 -23.004  0.00  0.00    +0.049 A 
ATOM     19  C   UNL     1       5.450   3.141 -22.679  0.00  0.00    +0.161 A 
ATOM     20  C   UNL     1       5.084   1.896 -22.761  0.00  0.00    +0.159 A 
ATOM     21  C   UNL     1       3.887   1.595 -23.167  0.00  0.00    +0.053 A 
BRANCH  20  22
ATOM     22  O   UNL     1       5.917   0.952 -22.436  0.00  0.00    -0.503 OA
ATOM     23  H   UNL     1       6.829   1.145 -22.334  0.00  0.00    +0.292 HD
ENDBRANCH  20  22
BRANCH  19  24
ATOM     24  O   UNL     1       6.647   3.442 -22.272  0.00  0.00    -0.491 OA
ATOM     25  C   UNL     1       6.813   4.059 -21.141  0.00  0.00    +0.277 C 
ENDBRANCH  19  24
ENDBRANCH  15  16
ENDBRANCH  11  15
TORSDOF 5
ENDMDL
MODEL 7
REMARK VINA RESULT:    -7.784      1.856      7.203
REMARK INTER + INTRA:         -10.561
REMARK INTER:                 -10.158
REMARK INTRA:                  -0.403
REMARK UNBOUND:                -0.729
REMARK  Name = ZINC000039386789
REMARK  7 active torsions:
REMARK  status: ('A' for Active; 'I' for Inactive)
REMARK    1  A    between atoms: C_1  and  O_2
REMARK    2  A    between atoms: O_2  and  C_3
REMARK    3  A    between atoms: C_11  and  C_12
REMARK    4  A    between atoms: C_12  and  C_13
REMARK    5  A    between atoms: C_16  and  O_17
REMARK    6  A    between atoms: O_17  and  C_18
REMARK    7  A    between atoms: C_19  and  O_20
REMARK                            x       y       z     vdW  Elec       q    Type
REMARK                         _______ _______ _______ _____ _____    ______ ____
ROOT
ATOM      1  C   UNL     1       4.912   2.525 -22.667  0.00  0.00    +0.098 C 
ATOM      2  C   UNL     1       4.055   1.554 -22.551  0.00  0.00    +0.019 C 
ATOM      3  C   UNL     1       2.783   1.791 -22.671  0.00  0.00    +0.066 C 
ATOM      4  C   UNL     1       2.367   3.000 -22.906  0.00  0.00    -0.018 C 
ATOM      5  C   UNL     1       3.223   3.972 -23.022  0.00  0.00    -0.052 C 
ATOM      6  C   UNL     1       2.808   5.180 -23.257  0.00  0.00    +0.082 C 
ATOM      7  C   UNL     1       1.535   5.418 -23.377  0.00  0.00    +0.134 C 
ATOM      8  N   UNL     1       0.678   4.448 -23.261  0.00  0.00    +0.233 N 
ATOM      9  H   UNL     1       0.165   4.688 -22.413  0.00  0.00    +0.202 HD
ATOM     10  H   UNL     1       0.153   4.413 -24.134  0.00  0.00    +0.202 HD
ATOM     11  C   UNL     1       1.095   3.239 -23.026  0.00  0.00    +0.094 C 
ATOM     12  C   UNL     1       4.495   3.734 -22.902  0.00  0.00    +0.104 C 
ENDROOT
BRANCH   1  14
ATOM     13  C   UNL     1       7.031   3.272 -22.537  0.00  0.00    +0.276 C 
ATOM     14  O   UNL     1       6.184   2.286 -22.548  0.00  0.00    -0.499 OA
ENDBRANCH   1  14
BRANCH  11  15
ATOM     15  C   UNL     1       0.238   2.268 -22.910  0.00  0.00    +0.094 C 
BRANCH  15  16
ATOM     16  C   UNL     1      -1.027   2.531 -22.758  0.00  0.00    -0.038 A 
ATOM     17  C   UNL     1      -1.798   2.632 -23.799  0.00  0.00    +0.007 A 
ATOM     18  C   UNL     1      -3.062   2.895 -23.647  0.00  0.00    +0.049 A 
ATOM     19  C   UNL     1      -3.554   3.058 -22.455  0.00  0.00    +0.161 A 
ATOM     20  C   UNL     1      -2.781   2.956 -21.414  0.00  0.00    +0.159 A 
ATOM     21  C   UNL     1      -1.518   2.693 -21.566  0.00  0.00    +0.053 A 
BRANCH  20  22
ATOM     22  O   UNL     1      -3.273   3.118 -20.222  0.00  0.00    -0.503 OA
ATOM     23  H   UNL     1      -3.005   3.848 -19.698  0.00  0.00    +0.292 HD
ENDBRANCH  20  22
BRANCH  19  24
ATOM     24  O   UNL     1      -4.818   3.321 -22.303  0.00  0.00    -0.491 OA
ATOM     25  C   UNL     1      -5.529   3.700 -23.322  0.00  0.00    +0.277 C 
ENDBRANCH  19  24
ENDBRANCH  15  16
ENDBRANCH  11  15
TORSDOF 5
ENDMDL
MODEL 8
REMARK VINA RESULT:    -7.128      2.036      3.032
REMARK INTER + INTRA:          -9.733
REMARK INTER:                  -9.232
REMARK INTRA:                  -0.501
REMARK UNBOUND:                -0.729
REMARK  Name = ZINC000039386789
REMARK  7 active torsions:
REMARK  status: ('A' for Active; 'I' for Inactive)
REMARK    1  A    between atoms: C_1  and  O_2
REMARK    2  A    between atoms: O_2  and  C_3
REMARK    3  A    between atoms: C_11  and  C_12
REMARK    4  A    between atoms: C_12  and  C_13
REMARK    5  A    between atoms: C_16  and  O_17
REMARK    6  A    between atoms: O_17  and  C_18
REMARK    7  A    between atoms: C_19  and  O_20
REMARK                            x       y       z     vdW  Elec       q    Type
REMARK                         _______ _______ _______ _____ _____    ______ ____
ROOT
ATOM      1  C   UNL     1      -3.546   3.490 -24.859  0.00  0.00    +0.098 C 
ATOM      2  C   UNL     1      -2.564   2.672 -25.098  0.00  0.00    +0.019 C 
ATOM      3  C   UNL     1      -1.822   2.242 -24.121  0.00  0.00    +0.066 C 
ATOM      4  C   UNL     1      -2.064   2.630 -22.904  0.00  0.00    -0.018 C 
ATOM      5  C   UNL     1      -3.045   3.448 -22.664  0.00  0.00    -0.052 C 
ATOM      6  C   UNL     1      -3.286   3.835 -21.448  0.00  0.00    +0.082 C 
ATOM      7  C   UNL     1      -2.545   3.406 -20.470  0.00  0.00    +0.134 C 
ATOM      8  N   UNL     1      -1.563   2.588 -20.709  0.00  0.00    +0.233 N 
ATOM      9  H   UNL     1      -0.737   3.138 -20.470  0.00  0.00    +0.202 HD
ATOM     10  H   UNL     1      -1.741   1.746 -20.161  0.00  0.00    +0.202 HD
ATOM     11  C   UNL     1      -1.323   2.200 -21.926  0.00  0.00    +0.094 C 
ATOM     12  C   UNL     1      -3.786   3.877 -23.642  0.00  0.00    +0.104 C 
ENDROOT
BRANCH   1  14
ATOM     13  C   UNL     1      -4.067   3.505 -27.049  0.00  0.00    +0.276 C 
ATOM     14  O   UNL     1      -4.287   3.919 -25.837  0.00  0.00    -0.499 OA
ENDBRANCH   1  14
BRANCH  11  15
ATOM     15  C   UNL     1      -0.340   1.383 -22.165  0.00  0.00    +0.094 C 
BRANCH  15  16
ATOM     16  C   UNL     1       0.888   1.802 -22.088  0.00  0.00    -0.038 A 
ATOM     17  C   UNL     1       1.637   1.437 -21.092  0.00  0.00    +0.007 A 
ATOM     18  C   UNL     1       2.866   1.856 -21.015  0.00  0.00    +0.049 A 
ATOM     19  C   UNL     1       3.344   2.640 -21.935  0.00  0.00    +0.161 A 
ATOM     20  C   UNL     1       2.593   3.005 -22.932  0.00  0.00    +0.159 A 
ATOM     21  C   UNL     1       1.366   2.585 -23.008  0.00  0.00    +0.053 A 
BRANCH  20  22
ATOM     22  O   UNL     1       3.072   3.789 -23.852  0.00  0.00    -0.503 OA
ATOM     23  H   UNL     1       3.910   4.191 -23.736  0.00  0.00    +0.292 HD
ENDBRANCH  20  22
BRANCH  19  24
ATOM     24  O   UNL     1       4.572   3.059 -21.858  0.00  0.00    -0.491 OA
ATOM     25  C   UNL     1       5.552   2.252 -22.135  0.00  0.00    +0.277 C 
ENDBRANCH  19  24
ENDBRANCH  15  16
ENDBRANCH  11  15
TORSDOF 5
ENDMDL
MODEL 9
REMARK VINA RESULT:    -7.095      2.089      3.922
REMARK INTER + INTRA:          -9.690
REMARK INTER:                  -8.961
REMARK INTRA:                  -0.729
REMARK UNBOUND:                -0.729
REMARK  Name = ZINC000039386789
REMARK  7 active torsions:
REMARK  status: ('A' for Active; 'I' for Inactive)
REMARK    1  A    between atoms: C_1  and  O_2
REMARK    2  A    between atoms: O_2  and  C_3
REMARK    3  A    between atoms: C_11  and  C_12
REMARK    4  A    between atoms: C_12  and  C_13
REMARK    5  A    between atoms: C_16  and  O_17
REMARK    6  A    between atoms: O_17  and  C_18
REMARK    7  A    between atoms: C_19  and  O_20
REMARK                            x       y       z     vdW  Elec       q    Type
REMARK                         _______ _______ _______ _____ _____    ______ ____
ROOT
ATOM      1  C   UNL     1      -1.072   3.417 -23.572  0.00  0.00    +0.098 C 
ATOM      2  C   UNL     1      -0.168   3.808 -24.420  0.00  0.00    +0.019 C 
ATOM      3  C   UNL     1       1.075   3.470 -24.248  0.00  0.00    +0.066 C 
ATOM      4  C   UNL     1       1.414   2.741 -23.227  0.00  0.00    -0.018 C 
ATOM      5  C   UNL     1       0.511   2.349 -22.378  0.00  0.00    -0.052 C 
ATOM      6  C   UNL     1       0.849   1.621 -21.357  0.00  0.00    +0.082 C 
ATOM      7  C   UNL     1       2.092   1.282 -21.184  0.00  0.00    +0.134 C 
ATOM      8  N   UNL     1       2.997   1.673 -22.032  0.00  0.00    +0.233 N 
ATOM      9  H   UNL     1       3.581   2.300 -21.479  0.00  0.00    +0.202 HD
ATOM     10  H   UNL     1       3.434   0.830 -22.405  0.00  0.00    +0.202 HD
ATOM     11  C   UNL     1       2.657   2.402 -23.053  0.00  0.00    +0.094 C 
ATOM     12  C   UNL     1      -0.733   2.688 -22.551  0.00  0.00    +0.104 C 
ENDROOT
BRANCH   1  14
ATOM     13  C   UNL     1      -3.257   3.112 -23.122  0.00  0.00    +0.276 C 
ATOM     14  O   UNL     1      -2.316   3.756 -23.745  0.00  0.00    -0.499 OA
ENDBRANCH   1  14
BRANCH  11  15
ATOM     15  C   UNL     1       3.562   2.793 -23.902  0.00  0.00    +0.094 C 
BRANCH  15  16
ATOM     16  C   UNL     1       4.524   3.575 -23.512  0.00  0.00    -0.038 A 
ATOM     17  C   UNL     1       5.757   3.173 -23.583  0.00  0.00    +0.007 A 
ATOM     18  C   UNL     1       6.720   3.955 -23.193  0.00  0.00    +0.049 A 
ATOM     19  C   UNL     1       6.448   5.140 -22.732  0.00  0.00    +0.161 A 
ATOM     20  C   UNL     1       5.214   5.542 -22.661  0.00  0.00    +0.159 A 
ATOM     21  C   UNL     1       4.252   4.759 -23.051  0.00  0.00    +0.053 A 
BRANCH  20  22
ATOM     22  O   UNL     1       4.942   6.726 -22.199  0.00  0.00    -0.503 OA
ATOM     23  H   UNL     1       4.319   6.829 -21.507  0.00  0.00    +0.292 HD
ENDBRANCH  20  22
BRANCH  19  24
ATOM     24  O   UNL     1       7.411   5.922 -22.342  0.00  0.00    -0.491 OA
ATOM     25  C   UNL     1       8.307   6.323 -23.193  0.00  0.00    +0.277 C 
ENDBRANCH  19  24
ENDBRANCH  15  16
ENDBRANCH  11  15
TORSDOF 5
ENDMDL
