MODEL 1
REMARK VINA RESULT:    -7.936      0.000      0.000
REMARK INTER + INTRA:         -10.145
REMARK INTER:                  -9.576
REMARK INTRA:                  -0.569
REMARK UNBOUND:                -0.584
REMARK  Name = ZINC000001578708
REMARK  5 active torsions:
REMARK  status: ('A' for Active; 'I' for Inactive)
REMARK    1  A    between atoms: C_1  and  N_2
REMARK    2  A    between atoms: C_7  and  C_8
REMARK    3  A    between atoms: C_8  and  C_9
REMARK    4  A    between atoms: C_9  and  O_10
REMARK    5  A    between atoms: C_9  and  C_11
REMARK                            x       y       z     vdW  Elec       q    Type
REMARK                         _______ _______ _______ _____ _____    ______ ____
ROOT
ATOM      1  C   UNL     1      -0.952   3.122 -22.393  0.00  0.00    +0.090 C 
ENDROOT
BRANCH   1   9
ATOM      2  C   UNL     1       1.049   1.494 -22.067  0.00  0.00    +0.190 C 
ATOM      3  N   UNL     1       1.227   2.628 -22.678  0.00  0.00    +0.235 N 
ATOM      4  H   UNL     1       0.690   1.911 -22.188  0.00  0.00    +0.203 HD
ATOM      5  C   UNL     1       2.404   2.948 -23.126  0.00  0.00    +0.131 C 
ATOM      6  C   UNL     1       2.580   4.082 -23.738  0.00  0.00    +0.051 C 
ATOM      7  C   UNL     1       1.580   4.895 -23.901  0.00  0.00    +0.011 C 
ATOM      8  C   UNL     1       0.403   4.575 -23.453  0.00  0.00    +0.055 C 
ATOM      9  C   UNL     1       0.226   3.441 -22.842  0.00  0.00    +0.067 C 
ENDBRANCH   1   9
BRANCH   1  10
ATOM     10  C   UNL     1      -1.892   2.780 -23.223  0.00  0.00    +0.150 C 
BRANCH  10  11
ATOM     11  C   UNL     1      -3.139   2.982 -22.912  0.00  0.00    -0.019 A 
ATOM     12  C   UNL     1      -3.585   2.618 -21.747  0.00  0.00    +0.006 A 
ATOM     13  C   UNL     1      -4.831   2.820 -21.436  0.00  0.00    +0.000 A 
ATOM     14  C   UNL     1      -5.630   3.386 -22.291  0.00  0.00    +0.000 A 
ATOM     15  C   UNL     1      -5.184   3.751 -23.456  0.00  0.00    +0.000 A 
ATOM     16  C   UNL     1      -3.938   3.549 -23.767  0.00  0.00    +0.006 A 
ENDBRANCH  10  11
BRANCH  10  17
ATOM     17  O   UNL     1      -1.587   2.236 -24.364  0.00  0.00    -0.387 OA
ATOM     18  H   UNL     1      -1.504   1.277 -24.253  0.00  0.00    +0.210 HD
ENDBRANCH  10  17
ENDBRANCH   1  10
TORSDOF 4
ENDMDL
MODEL 2
REMARK VINA RESULT:    -7.923      0.731      1.742
REMARK INTER + INTRA:         -10.129
REMARK INTER:                  -9.476
REMARK INTRA:                  -0.653
REMARK UNBOUND:                -0.584
REMARK  Name = ZINC000001578708
REMARK  5 active torsions:
REMARK  status: ('A' for Active; 'I' for Inactive)
REMARK    1  A    between atoms: C_1  and  N_2
REMARK    2  A    between atoms: C_7  and  C_8
REMARK    3  A    between atoms: C_8  and  C_9
REMARK    4  A    between atoms: C_9  and  O_10
REMARK    5  A    between atoms: C_9  and  C_11
REMARK                            x       y       z     vdW  Elec       q    Type
REMARK                         _______ _______ _______ _____ _____    ______ ____
ROOT
ATOM      1  C   UNL     1      -1.012   3.637 -23.147  0.00  0.00    +0.090 C 
ENDROOT
BRANCH   1   9
ATOM      2  C   UNL     1       1.118   4.203 -24.526  0.00  0.00    +0.190 C 
ATOM      3  N   UNL     1       1.169   3.299 -23.593  0.00  0.00    +0.235 N 
ATOM      4  H   UNL     1       0.722   4.009 -24.175  0.00  0.00    +0.203 HD
ATOM      5  C   UNL     1       2.284   2.678 -23.350  0.00  0.00    +0.131 C 
ATOM      6  C   UNL     1       2.335   1.773 -22.418  0.00  0.00    +0.051 C 
ATOM      7  C   UNL     1       1.269   1.490 -21.729  0.00  0.00    +0.011 C 
ATOM      8  C   UNL     1       0.154   2.111 -21.972  0.00  0.00    +0.055 C 
ATOM      9  C   UNL     1       0.104   3.016 -22.904  0.00  0.00    +0.067 C 
ENDBRANCH   1   9
BRANCH   1  10
ATOM     10  C   UNL     1      -2.003   3.002 -23.700  0.00  0.00    +0.150 C 
BRANCH  10  11
ATOM     11  C   UNL     1      -3.203   3.120 -23.214  0.00  0.00    -0.019 A 
ATOM     12  C   UNL     1      -3.454   2.726 -22.000  0.00  0.00    +0.006 A 
ATOM     13  C   UNL     1      -4.653   2.844 -21.514  0.00  0.00    +0.000 A 
ATOM     14  C   UNL     1      -5.602   3.354 -22.241  0.00  0.00    +0.000 A 
ATOM     15  C   UNL     1      -5.351   3.748 -23.455  0.00  0.00    +0.000 A 
ATOM     16  C   UNL     1      -4.152   3.630 -23.941  0.00  0.00    +0.006 A 
ENDBRANCH  10  11
BRANCH  10  17
ATOM     17  O   UNL     1      -1.794   2.249 -24.739  0.00  0.00    -0.387 OA
ATOM     18  H   UNL     1      -2.643   1.961 -25.106  0.00  0.00    +0.210 HD
ENDBRANCH  10  17
ENDBRANCH   1  10
TORSDOF 4
ENDMDL
MODEL 3
REMARK VINA RESULT:    -7.868      1.624      5.648
REMARK INTER + INTRA:         -10.062
REMARK INTER:                  -9.420
REMARK INTRA:                  -0.642
REMARK UNBOUND:                -0.584
REMARK  Name = ZINC000001578708
REMARK  5 active torsions:
REMARK  status: ('A' for Active; 'I' for Inactive)
REMARK    1  A    between atoms: C_1  and  N_2
REMARK    2  A    between atoms: C_7  and  C_8
REMARK    3  A    between atoms: C_8  and  C_9
REMARK    4  A    between atoms: C_9  and  O_10
REMARK    5  A    between atoms: C_9  and  C_11
REMARK                            x       y       z     vdW  Elec       q    Type
REMARK                         _______ _______ _______ _____ _____    ______ ____
ROOT
ATOM      1  C   UNL     1      -1.746   4.013 -23.643  0.00  0.00    +0.090 C 
ENDROOT
BRANCH   1   9
ATOM      2  C   UNL     1      -4.139   3.765 -24.629  0.00  0.00    +0.190 C 
ATOM      3  N   UNL     1      -3.948   3.643 -23.349  0.00  0.00    +0.235 N 
ATOM      4  H   UNL     1      -3.670   3.800 -24.319  0.00  0.00    +0.203 HD
ATOM      5  C   UNL     1      -4.952   3.396 -22.562  0.00  0.00    +0.131 C 
ATOM      6  C   UNL     1      -4.761   3.274 -21.282  0.00  0.00    +0.051 C 
ATOM      7  C   UNL     1      -3.564   3.399 -20.789  0.00  0.00    +0.011 C 
ATOM      8  C   UNL     1      -2.560   3.645 -21.576  0.00  0.00    +0.055 C 
ATOM      9  C   UNL     1      -2.752   3.767 -22.856  0.00  0.00    +0.067 C 
ENDBRANCH   1   9
BRANCH   1  10
ATOM     10  C   UNL     1      -0.773   3.157 -23.742  0.00  0.00    +0.150 C 
BRANCH  10  11
ATOM     11  C   UNL     1       0.457   3.550 -23.582  0.00  0.00    -0.019 A 
ATOM     12  C   UNL     1       0.744   4.817 -23.620  0.00  0.00    +0.006 A 
ATOM     13  C   UNL     1       1.973   5.209 -23.461  0.00  0.00    +0.000 A 
ATOM     14  C   UNL     1       2.914   4.335 -23.264  0.00  0.00    +0.000 A 
ATOM     15  C   UNL     1       2.627   3.067 -23.227  0.00  0.00    +0.000 A 
ATOM     16  C   UNL     1       1.398   2.675 -23.386  0.00  0.00    +0.006 A 
ENDBRANCH  10  11
BRANCH  10  17
ATOM     17  O   UNL     1      -1.028   1.909 -23.999  0.00  0.00    -0.387 OA
ATOM     18  H   UNL     1      -1.569   1.848 -24.802  0.00  0.00    +0.210 HD
ENDBRANCH  10  17
ENDBRANCH   1  10
TORSDOF 4
ENDMDL
MODEL 4
REMARK VINA RESULT:    -7.680      1.529      5.482
REMARK INTER + INTRA:          -9.835
REMARK INTER:                  -9.305
REMARK INTRA:                  -0.530
REMARK UNBOUND:                -0.584
REMARK  Name = ZINC000001578708
REMARK  5 active torsions:
REMARK  status: ('A' for Active; 'I' for Inactive)
REMARK    1  A    between atoms: C_1  and  N_2
REMARK    2  A    between atoms: C_7  and  C_8
REMARK    3  A    between atoms: C_8  and  C_9
REMARK    4  A    between atoms: C_9  and  O_10
REMARK    5  A    between atoms: C_9  and  C_11
REMARK                            x       y       z     vdW  Elec       q    Type
REMARK                         _______ _______ _______ _____ _____    ______ ____
ROOT
ATOM      1  C   UNL     1      -1.544   3.742 -22.565  0.00  0.00    +0.090 C 
ENDROOT
BRANCH   1   9
ATOM      2  C   UNL     1      -3.498   2.938 -21.050  0.00  0.00    +0.190 C 
ATOM      3  N   UNL     1      -3.743   3.377 -22.249  0.00  0.00    +0.235 N 
ATOM      4  H   UNL     1      -3.154   3.132 -21.452  0.00  0.00    +0.203 HD
ATOM      5  C   UNL     1      -4.965   3.415 -22.691  0.00  0.00    +0.131 C 
ATOM      6  C   UNL     1      -5.209   3.854 -23.890  0.00  0.00    +0.051 C 
ATOM      7  C   UNL     1      -4.232   4.256 -24.647  0.00  0.00    +0.011 C 
ATOM      8  C   UNL     1      -3.011   4.219 -24.205  0.00  0.00    +0.055 C 
ATOM      9  C   UNL     1      -2.766   3.779 -23.006  0.00  0.00    +0.067 C 
ENDBRANCH   1   9
BRANCH   1  10
ATOM     10  C   UNL     1      -0.680   2.938 -23.109  0.00  0.00    +0.150 C 
BRANCH  10  11
ATOM     11  C   UNL     1       0.578   3.264 -23.148  0.00  0.00    -0.019 A 
ATOM     12  C   UNL     1       1.478   2.437 -22.705  0.00  0.00    +0.006 A 
ATOM     13  C   UNL     1       2.735   2.762 -22.743  0.00  0.00    +0.000 A 
ATOM     14  C   UNL     1       3.093   3.916 -23.224  0.00  0.00    +0.000 A 
ATOM     15  C   UNL     1       2.194   4.744 -23.667  0.00  0.00    +0.000 A 
ATOM     16  C   UNL     1       0.936   4.418 -23.628  0.00  0.00    +0.006 A 
ENDBRANCH  10  11
BRANCH  10  17
ATOM     17  O   UNL     1      -1.073   1.807 -23.616  0.00  0.00    -0.387 OA
ATOM     18  H   UNL     1      -1.336   1.207 -22.901  0.00  0.00    +0.210 HD
ENDBRANCH  10  17
ENDBRANCH   1  10
TORSDOF 4
ENDMDL
MODEL 5
REMARK VINA RESULT:    -7.047      1.411      2.087
REMARK INTER + INTRA:          -9.073
REMARK INTER:                  -8.846
REMARK INTRA:                  -0.227
REMARK UNBOUND:                -0.584
REMARK  Name = ZINC000001578708
REMARK  5 active torsions:
REMARK  status: ('A' for Active; 'I' for Inactive)
REMARK    1  A    between atoms: C_1  and  N_2
REMARK    2  A    between atoms: C_7  and  C_8
REMARK    3  A    between atoms: C_8  and  C_9
REMARK    4  A    between atoms: C_9  and  O_10
REMARK    5  A    between atoms: C_9  and  C_11
REMARK                            x       y       z     vdW  Elec       q    Type
REMARK                         _______ _______ _______ _____ _____    ______ ____
ROOT
ATOM      1  C   UNL     1      -0.297   2.615 -23.257  0.00  0.00    +0.090 C 
ENDROOT
BRANCH   1   9
ATOM      2  C   UNL     1      -0.260   5.206 -23.464  0.00  0.00    +0.190 C 
ATOM      3  N   UNL     1       0.854   4.549 -23.335  0.00  0.00    +0.235 N 
ATOM      4  H   UNL     1      -0.159   4.654 -23.412  0.00  0.00    +0.203 HD
ATOM      5  C   UNL     1       1.986   5.186 -23.309  0.00  0.00    +0.131 C 
ATOM      6  C   UNL     1       3.100   4.528 -23.180  0.00  0.00    +0.051 C 
ATOM      7  C   UNL     1       3.081   3.232 -23.076  0.00  0.00    +0.011 C 
ATOM      8  C   UNL     1       1.949   2.595 -23.102  0.00  0.00    +0.055 C 
ATOM      9  C   UNL     1       0.835   3.253 -23.231  0.00  0.00    +0.067 C 
ENDBRANCH   1   9
BRANCH   1  10
ATOM     10  C   UNL     1      -0.902   2.319 -22.145  0.00  0.00    +0.150 C 
BRANCH  10  11
ATOM     11  C   UNL     1      -2.109   2.752 -21.926  0.00  0.00    -0.019 A 
ATOM     12  C   UNL     1      -2.440   3.185 -20.746  0.00  0.00    +0.006 A 
ATOM     13  C   UNL     1      -3.646   3.618 -20.527  0.00  0.00    +0.000 A 
ATOM     14  C   UNL     1      -4.521   3.617 -21.489  0.00  0.00    +0.000 A 
ATOM     15  C   UNL     1      -4.190   3.183 -22.669  0.00  0.00    +0.000 A 
ATOM     16  C   UNL     1      -2.984   2.751 -22.888  0.00  0.00    +0.006 A 
ENDBRANCH  10  11
BRANCH  10  17
ATOM     17  O   UNL     1      -0.302   1.592 -21.251  0.00  0.00    -0.387 OA
ATOM     18  H   UNL     1       0.648   1.562 -21.443  0.00  0.00    +0.210 HD
ENDBRANCH  10  17
ENDBRANCH   1  10
TORSDOF 4
ENDMDL
MODEL 6
REMARK VINA RESULT:    -6.998      2.055      5.462
REMARK INTER + INTRA:          -9.014
REMARK INTER:                  -8.542
REMARK INTRA:                  -0.472
REMARK UNBOUND:                -0.584
REMARK  Name = ZINC000001578708
REMARK  5 active torsions:
REMARK  status: ('A' for Active; 'I' for Inactive)
REMARK    1  A    between atoms: C_1  and  N_2
REMARK    2  A    between atoms: C_7  and  C_8
REMARK    3  A    between atoms: C_8  and  C_9
REMARK    4  A    between atoms: C_9  and  O_10
REMARK    5  A    between atoms: C_9  and  C_11
REMARK                            x       y       z     vdW  Elec       q    Type
REMARK                         _______ _______ _______ _____ _____    ______ ____
ROOT
ATOM      1  C   UNL     1       0.164   4.196 -24.873  0.00  0.00    +0.090 C 
ENDROOT
BRANCH   1   9
ATOM      2  C   UNL     1      -1.027   4.850 -22.657  0.00  0.00    +0.190 C 
ATOM      3  N   UNL     1      -1.695   4.260 -23.603  0.00  0.00    +0.235 N 
ATOM      4  H   UNL     1      -0.868   4.669 -23.166  0.00  0.00    +0.203 HD
ATOM      5  C   UNL     1      -2.957   3.998 -23.442  0.00  0.00    +0.131 C 
ATOM      6  C   UNL     1      -3.625   3.408 -24.389  0.00  0.00    +0.051 C 
ATOM      7  C   UNL     1      -3.029   3.081 -25.498  0.00  0.00    +0.011 C 
ATOM      8  C   UNL     1      -1.767   3.343 -25.659  0.00  0.00    +0.055 C 
ATOM      9  C   UNL     1      -1.100   3.933 -24.712  0.00  0.00    +0.067 C 
ENDBRANCH   1   9
BRANCH   1  10
ATOM     10  C   UNL     1       1.024   3.225 -24.961  0.00  0.00    +0.150 C 
BRANCH  10  11
ATOM     11  C   UNL     1       1.701   2.859 -23.912  0.00  0.00    -0.019 A 
ATOM     12  C   UNL     1       2.832   3.436 -23.636  0.00  0.00    +0.006 A 
ATOM     13  C   UNL     1       3.509   3.072 -22.588  0.00  0.00    +0.000 A 
ATOM     14  C   UNL     1       3.054   2.129 -21.817  0.00  0.00    +0.000 A 
ATOM     15  C   UNL     1       1.923   1.552 -22.093  0.00  0.00    +0.000 A 
ATOM     16  C   UNL     1       1.246   1.917 -23.141  0.00  0.00    +0.006 A 
ENDBRANCH  10  11
BRANCH  10  17
ATOM     17  O   UNL     1       1.207   2.619 -26.096  0.00  0.00    -0.387 OA
ATOM     18  H   UNL     1       0.428   2.743 -26.659  0.00  0.00    +0.210 HD
ENDBRANCH  10  17
ENDBRANCH   1  10
TORSDOF 4
ENDMDL
MODEL 7
REMARK VINA RESULT:    -6.919      2.080      3.143
REMARK INTER + INTRA:          -8.919
REMARK INTER:                  -8.360
REMARK INTRA:                  -0.558
REMARK UNBOUND:                -0.584
REMARK  Name = ZINC000001578708
REMARK  5 active torsions:
REMARK  status: ('A' for Active; 'I' for Inactive)
REMARK    1  A    between atoms: C_1  and  N_2
REMARK    2  A    between atoms: C_7  and  C_8
REMARK    3  A    between atoms: C_8  and  C_9
REMARK    4  A    between atoms: C_9  and  O_10
REMARK    5  A    between atoms: C_9  and  C_11
REMARK                            x       y       z     vdW  Elec       q    Type
REMARK                         _______ _______ _______ _____ _____    ______ ____
ROOT
ATOM      1  C   UNL     1       1.885   2.107 -22.345  0.00  0.00    +0.090 C 
ENDROOT
BRANCH   1   9
ATOM      2  C   UNL     1       4.097   0.742 -22.309  0.00  0.00    +0.190 C 
ATOM      3  N   UNL     1       4.121   2.010 -22.596  0.00  0.00    +0.235 N 
ATOM      4  H   UNL     1       3.683   1.123 -22.344  0.00  0.00    +0.203 HD
ATOM      5  C   UNL     1       5.250   2.595 -22.864  0.00  0.00    +0.131 C 
ATOM      6  C   UNL     1       5.273   3.862 -23.151  0.00  0.00    +0.051 C 
ATOM      7  C   UNL     1       4.167   4.545 -23.169  0.00  0.00    +0.011 C 
ATOM      8  C   UNL     1       3.038   3.960 -22.900  0.00  0.00    +0.055 C 
ATOM      9  C   UNL     1       3.015   2.692 -22.614  0.00  0.00    +0.067 C 
ENDBRANCH   1   9
BRANCH   1  10
ATOM     10  C   UNL     1       0.855   2.297 -23.115  0.00  0.00    +0.150 C 
BRANCH  10  11
ATOM     11  C   UNL     1      -0.234   2.815 -22.629  0.00  0.00    -0.019 A 
ATOM     12  C   UNL     1      -0.657   3.965 -23.063  0.00  0.00    +0.006 A 
ATOM     13  C   UNL     1      -1.745   4.482 -22.578  0.00  0.00    +0.000 A 
ATOM     14  C   UNL     1      -2.411   3.850 -21.658  0.00  0.00    +0.000 A 
ATOM     15  C   UNL     1      -1.989   2.700 -21.223  0.00  0.00    +0.000 A 
ATOM     16  C   UNL     1      -0.900   2.182 -21.709  0.00  0.00    +0.006 A 
ENDBRANCH  10  11
BRANCH  10  17
ATOM     17  O   UNL     1       0.914   1.969 -24.372  0.00  0.00    -0.387 OA
ATOM     18  H   UNL     1       0.054   2.129 -24.788  0.00  0.00    +0.210 HD
ENDBRANCH  10  17
ENDBRANCH   1  10
TORSDOF 4
ENDMDL
MODEL 8
REMARK VINA RESULT:    -6.786      1.508      2.715
REMARK INTER + INTRA:          -8.759
REMARK INTER:                  -8.339
REMARK INTRA:                  -0.420
REMARK UNBOUND:                -0.584
REMARK  Name = ZINC000001578708
REMARK  5 active torsions:
REMARK  status: ('A' for Active; 'I' for Inactive)
REMARK    1  A    between atoms: C_1  and  N_2
REMARK    2  A    between atoms: C_7  and  C_8
REMARK    3  A    between atoms: C_8  and  C_9
REMARK    4  A    between atoms: C_9  and  O_10
REMARK    5  A    between atoms: C_9  and  C_11
REMARK                            x       y       z     vdW  Elec       q    Type
REMARK                         _______ _______ _______ _____ _____    ______ ____
ROOT
ATOM      1  C   UNL     1      -0.257   2.752 -23.965  0.00  0.00    +0.090 C 
ENDROOT
BRANCH   1   9
ATOM      2  C   UNL     1       1.775   4.347 -24.257  0.00  0.00    +0.190 C 
ATOM      3  N   UNL     1       1.825   3.383 -23.386  0.00  0.00    +0.235 N 
ATOM      4  H   UNL     1       1.397   3.953 -24.117  0.00  0.00    +0.203 HD
ATOM      5  C   UNL     1       2.891   3.217 -22.661  0.00  0.00    +0.131 C 
ATOM      6  C   UNL     1       2.941   2.252 -21.791  0.00  0.00    +0.051 C 
ATOM      7  C   UNL     1       1.925   1.455 -21.645  0.00  0.00    +0.011 C 
ATOM      8  C   UNL     1       0.859   1.621 -22.370  0.00  0.00    +0.055 C 
ATOM      9  C   UNL     1       0.809   2.586 -23.240  0.00  0.00    +0.067 C 
ENDBRANCH   1   9
BRANCH   1  10
ATOM     10  C   UNL     1      -1.279   3.394 -23.481  0.00  0.00    +0.150 C 
BRANCH  10  11
ATOM     11  C   UNL     1      -2.377   3.483 -24.171  0.00  0.00    -0.019 A 
ATOM     12  C   UNL     1      -2.353   3.296 -25.458  0.00  0.00    +0.006 A 
ATOM     13  C   UNL     1      -3.451   3.385 -26.147  0.00  0.00    +0.000 A 
ATOM     14  C   UNL     1      -4.573   3.661 -25.551  0.00  0.00    +0.000 A 
ATOM     15  C   UNL     1      -4.597   3.847 -24.265  0.00  0.00    +0.000 A 
ATOM     16  C   UNL     1      -3.499   3.758 -23.575  0.00  0.00    +0.006 A 
ENDBRANCH  10  11
BRANCH  10  17
ATOM     17  O   UNL     1      -1.202   3.948 -22.308  0.00  0.00    -0.387 OA
ATOM     18  H   UNL     1      -0.791   3.329 -21.684  0.00  0.00    +0.210 HD
ENDBRANCH  10  17
ENDBRANCH   1  10
TORSDOF 4
ENDMDL
MODEL 9
REMARK VINA RESULT:    -6.432      2.704      4.331
REMARK INTER + INTRA:          -8.332
REMARK INTER:                  -7.748
REMARK INTRA:                  -0.584
REMARK UNBOUND:                -0.584
REMARK  Name = ZINC000001578708
REMARK  5 active torsions:
REMARK  status: ('A' for Active; 'I' for Inactive)
REMARK    1  A    between atoms: C_1  and  N_2
REMARK    2  A    between atoms: C_7  and  C_8
REMARK    3  A    between atoms: C_8  and  C_9
REMARK    4  A    between atoms: C_9  and  O_10
REMARK    5  A    between atoms: C_9  and  C_11
REMARK                            x       y       z     vdW  Elec       q    Type
REMARK                         _______ _______ _______ _____ _____    ______ ____
ROOT
ATOM      1  C   UNL     1       2.532   3.032 -24.298  0.00  0.00    +0.090 C 
ENDROOT
BRANCH   1   9
ATOM      2  C   UNL     1       2.408   5.404 -23.241  0.00  0.00    +0.190 C 
ATOM      3  N   UNL     1       3.526   4.741 -23.219  0.00  0.00    +0.235 N 
ATOM      4  H   UNL     1       2.540   4.893 -23.438  0.00  0.00    +0.203 HD
ATOM      5  C   UNL     1       4.581   5.263 -22.669  0.00  0.00    +0.131 C 
ATOM      6  C   UNL     1       5.699   4.599 -22.648  0.00  0.00    +0.051 C 
ATOM      7  C   UNL     1       5.761   3.413 -23.176  0.00  0.00    +0.011 C 
ATOM      8  C   UNL     1       4.705   2.891 -23.726  0.00  0.00    +0.055 C 
ATOM      9  C   UNL     1       3.588   3.555 -23.747  0.00  0.00    +0.067 C 
ENDBRANCH   1   9
BRANCH   1  10
ATOM     10  C   UNL     1       2.018   1.942 -23.812  0.00  0.00    +0.150 C 
BRANCH  10  11
ATOM     11  C   UNL     1       1.019   2.007 -22.982  0.00  0.00    -0.019 A 
ATOM     12  C   UNL     1      -0.080   2.605 -23.334  0.00  0.00    +0.006 A 
ATOM     13  C   UNL     1      -1.079   2.671 -22.505  0.00  0.00    +0.000 A 
ATOM     14  C   UNL     1      -0.978   2.139 -21.323  0.00  0.00    +0.000 A 
ATOM     15  C   UNL     1       0.122   1.542 -20.970  0.00  0.00    +0.000 A 
ATOM     16  C   UNL     1       1.120   1.476 -21.800  0.00  0.00    +0.006 A 
ENDBRANCH  10  11
BRANCH  10  17
ATOM     17  O   UNL     1       2.502   0.785 -24.155  0.00  0.00    -0.387 OA
ATOM     18  H   UNL     1       3.084   0.893 -24.923  0.00  0.00    +0.210 HD
ENDBRANCH  10  17
ENDBRANCH   1  10
TORSDOF 4
ENDMDL
