MODEL 1
REMARK VINA RESULT:   -11.372      0.000      0.000
REMARK INTER + INTRA:         -12.639
REMARK INTER:                 -12.704
REMARK INTRA:                   0.065
REMARK UNBOUND:                 0.063
REMARK  Name = ZINC000004104664
REMARK  5 active torsions:
REMARK  status: ('A' for Active; 'I' for Inactive)
REMARK    1  A    between atoms: C_1  and  C_2
REMARK    2  A    between atoms: C_2  and  C_3
REMARK    3  A    between atoms: C_3  and  O_4
REMARK    4  A    between atoms: C_18  and  C_19
REMARK    5  A    between atoms: C_23  and  C_24
REMARK                            x       y       z     vdW  Elec       q    Type
REMARK                         _______ _______ _______ _____ _____    ______ ____
ROOT
ATOM      1  C   UNL     1       2.502   2.148 -23.519  0.00  0.00    +0.071 C 
ATOM      2  C   UNL     1       2.541   2.709 -24.703  0.00  0.00    +0.035 C 
ATOM      3  C   UNL     1       1.329   3.120 -24.994  0.00  0.00    +0.007 C 
ATOM      4  C   UNL     1       0.542   2.814 -23.994  0.00  0.00    +0.002 C 
ATOM      5  C   UNL     1      -0.737   3.005 -23.797  0.00  0.00    +0.004 C 
ATOM      6  C   UNL     1      -1.458   3.608 -24.715  0.00  0.00    +0.083 C 
ATOM      7  C   UNL     1      -2.740   3.800 -24.519  0.00  0.00    +0.160 C 
ATOM      8  C   UNL     1      -3.302   3.391 -23.409  0.00  0.00    +0.004 C 
ATOM      9  C   UNL     1      -4.585   3.583 -23.213  0.00  0.00    +0.053 C 
ATOM     10  C   UNL     1      -5.148   3.173 -22.103  0.00  0.00    +0.157 C 
ATOM     11  C   UNL     1      -4.429   2.570 -21.184  0.00  0.00    +0.080 C 
ATOM     12  C   UNL     1      -3.146   2.379 -21.382  0.00  0.00    +0.019 C 
ATOM     13  O   UNL     1      -6.432   3.366 -21.907  0.00  0.00    -0.293 OA
ATOM     14  C   UNL     1      -2.583   2.788 -22.491  0.00  0.00    -0.000 C 
ATOM     15  C   UNL     1      -1.864   2.186 -21.575  0.00  0.00    +0.016 C 
ATOM     16  O   UNL     1      -3.459   4.402 -25.436  0.00  0.00    -0.292 OA
ATOM     17  C   UNL     1      -1.301   2.595 -22.686  0.00  0.00    +0.003 C 
ATOM     18  C   UNL     1      -0.580   1.992 -21.769  0.00  0.00    +0.005 C 
ATOM     19  C   UNL     1       0.702   1.801 -21.966  0.00  0.00    +0.010 C 
ATOM     20  C   UNL     1       1.264   2.211 -23.076  0.00  0.00    -0.000 C 
ATOM     21  C   UNL     1       2.009   1.622 -22.201  0.00  0.00    +0.014 C 
ENDROOT
BRANCH   1  23
ATOM     22  C   UNL     1       4.629   2.960 -23.640  0.00  0.00    +0.007 C 
ATOM     23  C   UNL     1       3.786   1.975 -23.758  0.00  0.00    +0.032 C 
ENDBRANCH   1  23
BRANCH   1  24
ATOM     24  O   UNL     1       2.798   1.670 -22.667  0.00  0.00    -0.388 OA
ATOM     25  H   UNL     1       2.259   1.976 -21.920  0.00  0.00    +0.210 HD
ENDBRANCH   1  24
TORSDOF 2
ENDMDL
MODEL 2
REMARK VINA RESULT:   -11.371      1.065      6.585
REMARK INTER + INTRA:         -12.638
REMARK INTER:                 -12.720
REMARK INTRA:                   0.082
REMARK UNBOUND:                 0.063
REMARK  Name = ZINC000004104664
REMARK  5 active torsions:
REMARK  status: ('A' for Active; 'I' for Inactive)
REMARK    1  A    between atoms: C_1  and  C_2
REMARK    2  A    between atoms: C_2  and  C_3
REMARK    3  A    between atoms: C_3  and  O_4
REMARK    4  A    between atoms: C_18  and  C_19
REMARK    5  A    between atoms: C_23  and  C_24
REMARK                            x       y       z     vdW  Elec       q    Type
REMARK                         _______ _______ _______ _____ _____    ______ ____
ROOT
ATOM      1  C   UNL     1      -4.676   3.236 -22.434  0.00  0.00    +0.071 C 
ATOM      2  C   UNL     1      -4.648   2.729 -21.226  0.00  0.00    +0.035 C 
ATOM      3  C   UNL     1      -3.416   2.355 -20.975  0.00  0.00    +0.007 C 
ATOM      4  C   UNL     1      -2.683   2.630 -22.024  0.00  0.00    +0.002 C 
ATOM      5  C   UNL     1      -1.410   2.456 -22.273  0.00  0.00    +0.004 C 
ATOM      6  C   UNL     1      -0.635   1.909 -21.364  0.00  0.00    +0.083 C 
ATOM      7  C   UNL     1       0.640   1.734 -21.612  0.00  0.00    +0.160 C 
ATOM      8  C   UNL     1       1.141   2.103 -22.764  0.00  0.00    +0.004 C 
ATOM      9  C   UNL     1       2.417   1.927 -23.013  0.00  0.00    +0.053 C 
ATOM     10  C   UNL     1       2.919   2.296 -24.165  0.00  0.00    +0.157 C 
ATOM     11  C   UNL     1       2.146   2.843 -25.075  0.00  0.00    +0.080 C 
ATOM     12  C   UNL     1       0.869   3.018 -24.825  0.00  0.00    +0.019 C 
ATOM     13  O   UNL     1       4.196   2.120 -24.413  0.00  0.00    -0.293 OA
ATOM     14  C   UNL     1       0.367   2.649 -23.673  0.00  0.00    -0.000 C 
ATOM     15  C   UNL     1      -0.406   3.195 -24.580  0.00  0.00    +0.016 C 
ATOM     16  O   UNL     1       1.414   1.188 -20.704  0.00  0.00    -0.292 OA
ATOM     17  C   UNL     1      -0.908   2.825 -23.426  0.00  0.00    +0.003 C 
ATOM     18  C   UNL     1      -1.683   3.371 -24.334  0.00  0.00    +0.005 C 
ATOM     19  C   UNL     1      -2.959   3.546 -24.085  0.00  0.00    +0.010 C 
ATOM     20  C   UNL     1      -3.459   3.177 -22.932  0.00  0.00    -0.000 C 
ATOM     21  C   UNL     1      -4.257   3.710 -23.797  0.00  0.00    +0.014 C 
ENDROOT
BRANCH   1  23
ATOM     22  C   UNL     1      -6.662   2.406 -21.679  0.00  0.00    +0.007 C 
ATOM     23  C   UNL     1      -5.952   3.394 -22.143  0.00  0.00    +0.032 C 
ENDBRANCH   1  23
BRANCH   1  24
ATOM     24  O   UNL     1      -5.023   3.668 -23.292  0.00  0.00    -0.388 OA
ATOM     25  H   UNL     1      -4.363   4.294 -23.629  0.00  0.00    +0.210 HD
ENDBRANCH   1  24
TORSDOF 2
ENDMDL
MODEL 3
REMARK VINA RESULT:   -10.872      1.327      6.059
REMARK INTER + INTRA:         -12.080
REMARK INTER:                 -12.286
REMARK INTRA:                   0.206
REMARK UNBOUND:                 0.063
REMARK  Name = ZINC000004104664
REMARK  5 active torsions:
REMARK  status: ('A' for Active; 'I' for Inactive)
REMARK    1  A    between atoms: C_1  and  C_2
REMARK    2  A    between atoms: C_2  and  C_3
REMARK    3  A    between atoms: C_3  and  O_4
REMARK    4  A    between atoms: C_18  and  C_19
REMARK    5  A    between atoms: C_23  and  C_24
REMARK                            x       y       z     vdW  Elec       q    Type
REMARK                         _______ _______ _______ _____ _____    ______ ____
ROOT
ATOM      1  C   UNL     1      -3.673   3.211 -22.632  0.00  0.00    +0.071 C 
ATOM      2  C   UNL     1      -3.705   3.736 -23.832  0.00  0.00    +0.035 C 
ATOM      3  C   UNL     1      -2.506   3.623 -24.354  0.00  0.00    +0.007 C 
ATOM      4  C   UNL     1      -1.734   3.030 -23.479  0.00  0.00    +0.002 C 
ATOM      5  C   UNL     1      -0.471   2.690 -23.514  0.00  0.00    +0.004 C 
ATOM      6  C   UNL     1       0.246   2.949 -24.584  0.00  0.00    +0.083 C 
ATOM      7  C   UNL     1       1.512   2.609 -24.621  0.00  0.00    +0.160 C 
ATOM      8  C   UNL     1       2.061   2.013 -23.593  0.00  0.00    +0.004 C 
ATOM      9  C   UNL     1       3.328   1.673 -23.629  0.00  0.00    +0.053 C 
ATOM     10  C   UNL     1       3.878   1.076 -22.601  0.00  0.00    +0.157 C 
ATOM     11  C   UNL     1       3.163   0.816 -21.531  0.00  0.00    +0.080 C 
ATOM     12  C   UNL     1       1.896   1.157 -21.496  0.00  0.00    +0.019 C 
ATOM     13  O   UNL     1       5.146   0.736 -22.639  0.00  0.00    -0.293 OA
ATOM     14  C   UNL     1       1.346   1.754 -22.523  0.00  0.00    -0.000 C 
ATOM     15  C   UNL     1       0.630   1.495 -21.455  0.00  0.00    +0.016 C 
ATOM     16  O   UNL     1       2.228   2.868 -25.689  0.00  0.00    -0.292 OA
ATOM     17  C   UNL     1       0.080   2.093 -22.485  0.00  0.00    +0.003 C 
ATOM     18  C   UNL     1      -0.637   1.834 -21.416  0.00  0.00    +0.005 C 
ATOM     19  C   UNL     1      -1.903   2.175 -21.380  0.00  0.00    +0.010 C 
ATOM     20  C   UNL     1      -2.452   2.772 -22.409  0.00  0.00    -0.000 C 
ATOM     21  C   UNL     1      -3.193   2.536 -21.378  0.00  0.00    +0.014 C 
ENDROOT
BRANCH   1  23
ATOM     22  C   UNL     1      -5.580   3.761 -23.756  0.00  0.00    +0.007 C 
ATOM     23  C   UNL     1      -4.941   3.569 -22.638  0.00  0.00    +0.032 C 
ENDBRANCH   1  23
BRANCH   1  24
ATOM     24  O   UNL     1      -3.971   2.896 -21.707  0.00  0.00    -0.388 OA
ATOM     25  H   UNL     1      -3.219   2.935 -21.095  0.00  0.00    +0.210 HD
ENDBRANCH   1  24
TORSDOF 2
ENDMDL
MODEL 4
REMARK VINA RESULT:   -10.645      1.554      6.758
REMARK INTER + INTRA:         -11.827
REMARK INTER:                 -11.929
REMARK INTRA:                   0.102
REMARK UNBOUND:                 0.063
REMARK  Name = ZINC000004104664
REMARK  5 active torsions:
REMARK  status: ('A' for Active; 'I' for Inactive)
REMARK    1  A    between atoms: C_1  and  C_2
REMARK    2  A    between atoms: C_2  and  C_3
REMARK    3  A    between atoms: C_3  and  O_4
REMARK    4  A    between atoms: C_18  and  C_19
REMARK    5  A    between atoms: C_23  and  C_24
REMARK                            x       y       z     vdW  Elec       q    Type
REMARK                         _______ _______ _______ _____ _____    ______ ____
ROOT
ATOM      1  C   UNL     1      -2.466   3.436 -22.871  0.00  0.00    +0.071 C 
ATOM      2  C   UNL     1      -2.724   2.391 -22.123  0.00  0.00    +0.035 C 
ATOM      3  C   UNL     1      -1.578   1.869 -21.753  0.00  0.00    +0.007 C 
ATOM      4  C   UNL     1      -0.615   2.588 -22.270  0.00  0.00    +0.002 C 
ATOM      5  C   UNL     1       0.688   2.487 -22.201  0.00  0.00    +0.004 C 
ATOM      6  C   UNL     1       1.232   1.513 -21.506  0.00  0.00    +0.083 C 
ATOM      7  C   UNL     1       2.537   1.410 -21.435  0.00  0.00    +0.160 C 
ATOM      8  C   UNL     1       3.298   2.275 -22.056  0.00  0.00    +0.004 C 
ATOM      9  C   UNL     1       4.604   2.172 -21.986  0.00  0.00    +0.053 C 
ATOM     10  C   UNL     1       5.366   3.038 -22.608  0.00  0.00    +0.157 C 
ATOM     11  C   UNL     1       4.824   4.012 -23.302  0.00  0.00    +0.080 C 
ATOM     12  C   UNL     1       3.518   4.114 -23.372  0.00  0.00    +0.019 C 
ATOM     13  O   UNL     1       6.673   2.933 -22.536  0.00  0.00    -0.293 OA
ATOM     14  C   UNL     1       2.756   3.248 -22.751  0.00  0.00    -0.000 C 
ATOM     15  C   UNL     1       2.213   4.220 -23.444  0.00  0.00    +0.016 C 
ATOM     16  O   UNL     1       3.080   0.437 -20.742  0.00  0.00    -0.292 OA
ATOM     17  C   UNL     1       1.451   3.353 -22.822  0.00  0.00    +0.003 C 
ATOM     18  C   UNL     1       0.907   4.326 -23.516  0.00  0.00    +0.005 C 
ATOM     19  C   UNL     1      -0.399   4.428 -23.586  0.00  0.00    +0.010 C 
ATOM     20  C   UNL     1      -1.159   3.562 -22.965  0.00  0.00    -0.000 C 
ATOM     21  C   UNL     1      -1.735   4.503 -23.636  0.00  0.00    +0.014 C 
ENDROOT
BRANCH   1  23
ATOM     22  C   UNL     1      -4.497   3.376 -21.835  0.00  0.00    +0.007 C 
ATOM     23  C   UNL     1      -3.782   3.503 -22.915  0.00  0.00    +0.032 C 
ENDBRANCH   1  23
BRANCH   1  24
ATOM     24  O   UNL     1      -2.602   4.260 -23.460  0.00  0.00    -0.388 OA
ATOM     25  H   UNL     1      -3.115   4.924 -22.973  0.00  0.00    +0.210 HD
ENDBRANCH   1  24
TORSDOF 2
ENDMDL
MODEL 5
REMARK VINA RESULT:   -10.267      1.273      2.775
REMARK INTER + INTRA:         -11.405
REMARK INTER:                 -11.457
REMARK INTRA:                   0.052
REMARK UNBOUND:                 0.063
REMARK  Name = ZINC000004104664
REMARK  5 active torsions:
REMARK  status: ('A' for Active; 'I' for Inactive)
REMARK    1  A    between atoms: C_1  and  C_2
REMARK    2  A    between atoms: C_2  and  C_3
REMARK    3  A    between atoms: C_3  and  O_4
REMARK    4  A    between atoms: C_18  and  C_19
REMARK    5  A    between atoms: C_23  and  C_24
REMARK                            x       y       z     vdW  Elec       q    Type
REMARK                         _______ _______ _______ _____ _____    ______ ____
ROOT
ATOM      1  C   UNL     1       2.967   1.707 -22.611  0.00  0.00    +0.071 C 
ATOM      2  C   UNL     1       2.735   1.309 -21.384  0.00  0.00    +0.035 C 
ATOM      3  C   UNL     1       1.461   1.500 -21.133  0.00  0.00    +0.007 C 
ATOM      4  C   UNL     1       0.906   2.014 -22.201  0.00  0.00    +0.002 C 
ATOM      5  C   UNL     1      -0.323   2.381 -22.459  0.00  0.00    +0.004 C 
ATOM      6  C   UNL     1      -1.251   2.250 -21.538  0.00  0.00    +0.083 C 
ATOM      7  C   UNL     1      -2.483   2.617 -21.795  0.00  0.00    +0.160 C 
ATOM      8  C   UNL     1      -2.789   3.114 -22.967  0.00  0.00    +0.004 C 
ATOM      9  C   UNL     1      -4.022   3.482 -23.224  0.00  0.00    +0.053 C 
ATOM     10  C   UNL     1      -4.328   3.980 -24.396  0.00  0.00    +0.157 C 
ATOM     11  C   UNL     1      -3.402   4.112 -25.318  0.00  0.00    +0.080 C 
ATOM     12  C   UNL     1      -2.169   3.744 -25.059  0.00  0.00    +0.019 C 
ATOM     13  O   UNL     1      -5.563   4.347 -24.652  0.00  0.00    -0.293 OA
ATOM     14  C   UNL     1      -1.862   3.246 -23.887  0.00  0.00    -0.000 C 
ATOM     15  C   UNL     1      -0.936   3.377 -24.806  0.00  0.00    +0.016 C 
ATOM     16  O   UNL     1      -3.410   2.486 -20.875  0.00  0.00    -0.292 OA
ATOM     17  C   UNL     1      -0.630   2.879 -23.632  0.00  0.00    +0.003 C 
ATOM     18  C   UNL     1       0.298   3.010 -24.552  0.00  0.00    +0.005 C 
ATOM     19  C   UNL     1       1.530   2.643 -24.294  0.00  0.00    +0.010 C 
ATOM     20  C   UNL     1       1.835   2.145 -23.121  0.00  0.00    -0.000 C 
ATOM     21  C   UNL     1       2.778   2.257 -23.997  0.00  0.00    +0.014 C 
ENDROOT
BRANCH   1  23
ATOM     22  C   UNL     1       4.873   1.926 -21.377  0.00  0.00    +0.007 C 
ATOM     23  C   UNL     1       4.192   1.326 -22.311  0.00  0.00    +0.032 C 
ENDBRANCH   1  23
BRANCH   1  24
ATOM     24  O   UNL     1       3.458   1.917 -23.481  0.00  0.00    -0.388 OA
ATOM     25  H   UNL     1       3.018   1.466 -24.219  0.00  0.00    +0.210 HD
ENDBRANCH   1  24
TORSDOF 2
ENDMDL
MODEL 6
REMARK VINA RESULT:    -9.661      1.849      3.490
REMARK INTER + INTRA:         -10.728
REMARK INTER:                 -10.822
REMARK INTRA:                   0.094
REMARK UNBOUND:                 0.063
REMARK  Name = ZINC000004104664
REMARK  5 active torsions:
REMARK  status: ('A' for Active; 'I' for Inactive)
REMARK    1  A    between atoms: C_1  and  C_2
REMARK    2  A    between atoms: C_2  and  C_3
REMARK    3  A    between atoms: C_3  and  O_4
REMARK    4  A    between atoms: C_18  and  C_19
REMARK    5  A    between atoms: C_23  and  C_24
REMARK                            x       y       z     vdW  Elec       q    Type
REMARK                         _______ _______ _______ _____ _____    ______ ____
ROOT
ATOM      1  C   UNL     1       4.841   3.240 -22.549  0.00  0.00    +0.071 C 
ATOM      2  C   UNL     1       4.885   2.149 -21.824  0.00  0.00    +0.035 C 
ATOM      3  C   UNL     1       3.653   1.737 -21.641  0.00  0.00    +0.007 C 
ATOM      4  C   UNL     1       2.848   2.570 -22.250  0.00  0.00    +0.002 C 
ATOM      5  C   UNL     1       1.545   2.603 -22.366  0.00  0.00    +0.004 C 
ATOM      6  C   UNL     1       0.815   1.668 -21.801  0.00  0.00    +0.083 C 
ATOM      7  C   UNL     1      -0.491   1.699 -21.916  0.00  0.00    +0.160 C 
ATOM      8  C   UNL     1      -1.067   2.660 -22.593  0.00  0.00    +0.004 C 
ATOM      9  C   UNL     1      -2.373   2.691 -22.708  0.00  0.00    +0.053 C 
ATOM     10  C   UNL     1      -2.950   3.653 -23.386  0.00  0.00    +0.157 C 
ATOM     11  C   UNL     1      -2.222   4.588 -23.951  0.00  0.00    +0.080 C 
ATOM     12  C   UNL     1      -0.916   4.555 -23.835  0.00  0.00    +0.019 C 
ATOM     13  O   UNL     1      -4.258   3.683 -23.500  0.00  0.00    -0.293 OA
ATOM     14  C   UNL     1      -0.338   3.594 -23.158  0.00  0.00    -0.000 C 
ATOM     15  C   UNL     1       0.390   4.527 -23.722  0.00  0.00    +0.016 C 
ATOM     16  O   UNL     1      -1.220   0.765 -21.351  0.00  0.00    -0.292 OA
ATOM     17  C   UNL     1       0.967   3.565 -23.044  0.00  0.00    +0.003 C 
ATOM     18  C   UNL     1       1.698   4.498 -23.608  0.00  0.00    +0.005 C 
ATOM     19  C   UNL     1       3.004   4.466 -23.493  0.00  0.00    +0.010 C 
ATOM     20  C   UNL     1       3.579   3.505 -22.815  0.00  0.00    -0.000 C 
ATOM     21  C   UNL     1       4.335   4.403 -23.354  0.00  0.00    +0.014 C 
ENDROOT
BRANCH   1  23
ATOM     22  C   UNL     1       6.737   3.644 -21.347  0.00  0.00    +0.007 C 
ATOM     23  C   UNL     1       6.149   3.170 -22.408  0.00  0.00    +0.032 C 
ENDBRANCH   1  23
BRANCH   1  24
ATOM     24  O   UNL     1       5.140   4.064 -23.072  0.00  0.00    -0.388 OA
ATOM     25  H   UNL     1       6.007   3.896 -23.473  0.00  0.00    +0.210 HD
ENDBRANCH   1  24
TORSDOF 2
ENDMDL
MODEL 7
REMARK VINA RESULT:    -9.013      1.756      2.987
REMARK INTER + INTRA:         -10.004
REMARK INTER:                 -10.124
REMARK INTRA:                   0.120
REMARK UNBOUND:                 0.063
REMARK  Name = ZINC000004104664
REMARK  5 active torsions:
REMARK  status: ('A' for Active; 'I' for Inactive)
REMARK    1  A    between atoms: C_1  and  C_2
REMARK    2  A    between atoms: C_2  and  C_3
REMARK    3  A    between atoms: C_3  and  O_4
REMARK    4  A    between atoms: C_18  and  C_19
REMARK    5  A    between atoms: C_23  and  C_24
REMARK                            x       y       z     vdW  Elec       q    Type
REMARK                         _______ _______ _______ _____ _____    ______ ____
ROOT
ATOM      1  C   UNL     1       3.707   1.471 -21.107  0.00  0.00    +0.071 C 
ATOM      2  C   UNL     1       4.583   1.908 -21.978  0.00  0.00    +0.035 C 
ATOM      3  C   UNL     1       3.924   2.438 -22.982  0.00  0.00    +0.007 C 
ATOM      4  C   UNL     1       2.644   2.329 -22.732  0.00  0.00    +0.002 C 
ATOM      5  C   UNL     1       1.585   2.696 -23.409  0.00  0.00    +0.004 C 
ATOM      6  C   UNL     1       1.727   3.295 -24.570  0.00  0.00    +0.083 C 
ATOM      7  C   UNL     1       0.668   3.663 -25.250  0.00  0.00    +0.160 C 
ATOM      8  C   UNL     1      -0.529   3.435 -24.772  0.00  0.00    +0.004 C 
ATOM      9  C   UNL     1      -1.589   3.803 -25.452  0.00  0.00    +0.053 C 
ATOM     10  C   UNL     1      -2.788   3.575 -24.975  0.00  0.00    +0.157 C 
ATOM     11  C   UNL     1      -2.932   2.977 -23.815  0.00  0.00    +0.080 C 
ATOM     12  C   UNL     1      -1.871   2.609 -23.136  0.00  0.00    +0.019 C 
ATOM     13  O   UNL     1      -3.848   3.944 -25.656  0.00  0.00    -0.293 OA
ATOM     14  C   UNL     1      -0.672   2.837 -23.612  0.00  0.00    -0.000 C 
ATOM     15  C   UNL     1      -0.814   2.239 -22.454  0.00  0.00    +0.016 C 
ATOM     16  O   UNL     1       0.810   4.261 -26.409  0.00  0.00    -0.292 OA
ATOM     17  C   UNL     1       0.386   2.468 -22.932  0.00  0.00    +0.003 C 
ATOM     18  C   UNL     1       0.245   1.869 -21.772  0.00  0.00    +0.005 C 
ATOM     19  C   UNL     1       1.305   1.501 -21.093  0.00  0.00    +0.010 C 
ATOM     20  C   UNL     1       2.503   1.730 -21.571  0.00  0.00    -0.000 C 
ATOM     21  C   UNL     1       2.409   1.139 -20.427  0.00  0.00    +0.014 C 
ENDROOT
BRANCH   1  23
ATOM     22  C   UNL     1       5.351  -0.044 -20.656  0.00  0.00    +0.007 C 
ATOM     23  C   UNL     1       4.798   1.118 -20.458  0.00  0.00    +0.032 C 
ENDBRANCH   1  23
BRANCH   1  24
ATOM     24  O   UNL     1       3.308   1.044 -20.270  0.00  0.00    -0.388 OA
ATOM     25  H   UNL     1       3.744   1.407 -19.482  0.00  0.00    +0.210 HD
ENDBRANCH   1  24
TORSDOF 2
ENDMDL
MODEL 8
REMARK VINA RESULT:    -8.897      1.950      6.412
REMARK INTER + INTRA:          -9.875
REMARK INTER:                  -9.925
REMARK INTRA:                   0.050
REMARK UNBOUND:                 0.063
REMARK  Name = ZINC000004104664
REMARK  5 active torsions:
REMARK  status: ('A' for Active; 'I' for Inactive)
REMARK    1  A    between atoms: C_1  and  C_2
REMARK    2  A    between atoms: C_2  and  C_3
REMARK    3  A    between atoms: C_3  and  O_4
REMARK    4  A    between atoms: C_18  and  C_19
REMARK    5  A    between atoms: C_23  and  C_24
REMARK                            x       y       z     vdW  Elec       q    Type
REMARK                         _______ _______ _______ _____ _____    ______ ____
ROOT
ATOM      1  C   UNL     1      -2.352   3.458 -23.677  0.00  0.00    +0.071 C 
ATOM      2  C   UNL     1      -2.398   4.764 -23.771  0.00  0.00    +0.035 C 
ATOM      3  C   UNL     1      -1.177   5.221 -23.621  0.00  0.00    +0.007 C 
ATOM      4  C   UNL     1      -0.378   4.201 -23.436  0.00  0.00    +0.002 C 
ATOM      5  C   UNL     1       0.913   4.124 -23.240  0.00  0.00    +0.004 C 
ATOM      6  C   UNL     1       1.636   5.221 -23.206  0.00  0.00    +0.083 C 
ATOM      7  C   UNL     1       2.930   5.146 -23.011  0.00  0.00    +0.160 C 
ATOM      8  C   UNL     1       3.502   3.980 -22.849  0.00  0.00    +0.004 C 
ATOM      9  C   UNL     1       4.797   3.904 -22.653  0.00  0.00    +0.053 C 
ATOM     10  C   UNL     1       5.371   2.737 -22.491  0.00  0.00    +0.157 C 
ATOM     11  C   UNL     1       4.650   1.640 -22.524  0.00  0.00    +0.080 C 
ATOM     12  C   UNL     1       3.355   1.717 -22.720  0.00  0.00    +0.019 C 
ATOM     13  O   UNL     1       6.667   2.663 -22.295  0.00  0.00    -0.293 OA
ATOM     14  C   UNL     1       2.781   2.883 -22.882  0.00  0.00    -0.000 C 
ATOM     15  C   UNL     1       2.061   1.788 -22.916  0.00  0.00    +0.016 C 
ATOM     16  O   UNL     1       3.651   6.242 -22.977  0.00  0.00    -0.292 OA
ATOM     17  C   UNL     1       1.487   2.957 -23.078  0.00  0.00    +0.003 C 
ATOM     18  C   UNL     1       0.765   1.861 -23.112  0.00  0.00    +0.005 C 
ATOM     19  C   UNL     1      -0.530   1.937 -23.308  0.00  0.00    +0.010 C 
ATOM     20  C   UNL     1      -1.102   3.104 -23.469  0.00  0.00    -0.000 C 
ATOM     21  C   UNL     1      -1.849   2.051 -23.510  0.00  0.00    +0.014 C 
ENDROOT
BRANCH   1  23
ATOM     22  C   UNL     1      -4.120   3.945 -25.034  0.00  0.00    +0.007 C 
ATOM     23  C   UNL     1      -3.649   3.579 -23.876  0.00  0.00    +0.032 C 
ENDBRANCH   1  23
BRANCH   1  24
ATOM     24  O   UNL     1      -2.647   2.480 -23.656  0.00  0.00    -0.388 OA
ATOM     25  H   UNL     1      -2.989   2.226 -24.528  0.00  0.00    +0.210 HD
ENDBRANCH   1  24
TORSDOF 2
ENDMDL
MODEL 9
REMARK VINA RESULT:    -8.496      2.890      5.541
REMARK INTER + INTRA:          -9.426
REMARK INTER:                  -9.489
REMARK INTRA:                   0.063
REMARK UNBOUND:                 0.063
REMARK  Name = ZINC000004104664
REMARK  5 active torsions:
REMARK  status: ('A' for Active; 'I' for Inactive)
REMARK    1  A    between atoms: C_1  and  C_2
REMARK    2  A    between atoms: C_2  and  C_3
REMARK    3  A    between atoms: C_3  and  O_4
REMARK    4  A    between atoms: C_18  and  C_19
REMARK    5  A    between atoms: C_23  and  C_24
REMARK                            x       y       z     vdW  Elec       q    Type
REMARK                         _______ _______ _______ _____ _____    ______ ____
ROOT
ATOM      1  C   UNL     1       6.895   5.282 -22.270  0.00  0.00    +0.071 C 
ATOM      2  C   UNL     1       7.445   4.128 -22.554  0.00  0.00    +0.035 C 
ATOM      3  C   UNL     1       6.506   3.338 -23.020  0.00  0.00    +0.007 C 
ATOM      4  C   UNL     1       5.378   4.002 -23.023  0.00  0.00    +0.002 C 
ATOM      5  C   UNL     1       4.166   3.669 -23.388  0.00  0.00    +0.004 C 
ATOM      6  C   UNL     1       3.932   2.462 -23.852  0.00  0.00    +0.083 C 
ATOM      7  C   UNL     1       2.719   2.126 -24.218  0.00  0.00    +0.160 C 
ATOM      8  C   UNL     1       1.741   2.992 -24.122  0.00  0.00    +0.004 C 
ATOM      9  C   UNL     1       0.527   2.656 -24.488  0.00  0.00    +0.053 C 
ATOM     10  C   UNL     1      -0.451   3.522 -24.391  0.00  0.00    +0.157 C 
ATOM     11  C   UNL     1      -0.219   4.728 -23.928  0.00  0.00    +0.080 C 
ATOM     12  C   UNL     1       0.996   5.063 -23.562  0.00  0.00    +0.019 C 
ATOM     13  O   UNL     1      -1.666   3.184 -24.758  0.00  0.00    -0.293 OA
ATOM     14  C   UNL     1       1.974   4.198 -23.658  0.00  0.00    -0.000 C 
ATOM     15  C   UNL     1       2.208   5.402 -23.195  0.00  0.00    +0.016 C 
ATOM     16  O   UNL     1       2.485   0.921 -24.682  0.00  0.00    -0.292 OA
ATOM     17  C   UNL     1       3.187   4.535 -23.292  0.00  0.00    +0.003 C 
ATOM     18  C   UNL     1       3.422   5.741 -22.828  0.00  0.00    +0.005 C 
ATOM     19  C   UNL     1       4.636   6.076 -22.462  0.00  0.00    +0.010 C 
ATOM     20  C   UNL     1       5.613   5.209 -22.559  0.00  0.00    -0.000 C 
ATOM     21  C   UNL     1       5.887   6.384 -22.098  0.00  0.00    +0.014 C 
ENDROOT
BRANCH   1  23
ATOM     22  C   UNL     1       8.623   5.151 -20.787  0.00  0.00    +0.007 C 
ATOM     23  C   UNL     1       8.129   5.578 -21.913  0.00  0.00    +0.032 C 
ENDBRANCH   1  23
BRANCH   1  24
ATOM     24  O   UNL     1       6.785   6.249 -21.959  0.00  0.00    -0.388 OA
ATOM     25  H   UNL     1       7.102   6.335 -21.046  0.00  0.00    +0.210 HD
ENDBRANCH   1  24
TORSDOF 2
ENDMDL
