MODEL 1
REMARK VINA RESULT:    -9.311      0.000      0.000
REMARK INTER + INTRA:         -11.142
REMARK INTER:                 -10.672
REMARK INTRA:                  -0.469
REMARK UNBOUND:                -0.470
REMARK  Name = ZINC000000156701
REMARK  4 active torsions:
REMARK  status: ('A' for Active; 'I' for Inactive)
REMARK    1  A    between atoms: C_4  and  C_5
REMARK    2  A    between atoms: C_8  and  O_9
REMARK    3  A    between atoms: C_15  and  O_16
REMARK    4  A    between atoms: C_18  and  O_19
REMARK                            x       y       z     vdW  Elec       q    Type
REMARK                         _______ _______ _______ _____ _____    ______ ____
ROOT
ATOM      1  O   UNL     1       1.172   1.208 -19.695  0.00  0.00    -0.292 OA
ATOM      2  C   UNL     1       0.783   1.583 -20.878  0.00  0.00    +0.174 C 
ATOM      3  C   UNL     1      -0.449   1.950 -21.071  0.00  0.00    +0.129 C 
ATOM      4  C   UNL     1      -0.837   2.324 -22.254  0.00  0.00    +0.211 C 
ATOM      5  O   UNL     1       0.006   2.332 -23.243  0.00  0.00    -0.483 OA
ATOM      6  C   UNL     1       1.238   1.965 -23.049  0.00  0.00    +0.139 A 
ATOM      7  C   UNL     1       2.082   1.972 -24.039  0.00  0.00    +0.092 A 
ATOM      8  C   UNL     1       3.314   1.606 -23.845  0.00  0.00    +0.124 A 
ATOM      9  C   UNL     1       3.702   1.231 -22.662  0.00  0.00    +0.091 A 
ATOM     10  C   UNL     1       2.859   1.224 -21.673  0.00  0.00    +0.134 A 
ATOM     11  C   UNL     1       1.626   1.590 -21.867  0.00  0.00    +0.101 A 
ENDROOT
BRANCH   4  12
ATOM     12  C   UNL     1      -2.070   2.691 -22.446  0.00  0.00    -0.007 A 
ATOM     13  C   UNL     1      -2.912   2.677 -21.456  0.00  0.00    +0.011 A 
ATOM     14  C   UNL     1      -4.145   3.044 -21.648  0.00  0.00    +0.046 A 
ATOM     15  C   UNL     1      -4.535   3.423 -22.828  0.00  0.00    +0.117 A 
ATOM     16  C   UNL     1      -3.691   3.436 -23.818  0.00  0.00    +0.046 A 
ATOM     17  C   UNL     1      -2.459   3.070 -23.627  0.00  0.00    +0.011 A 
BRANCH  15  18
ATOM     18  O   UNL     1      -5.767   3.789 -23.019  0.00  0.00    -0.507 OA
ATOM     19  H   UNL     1      -6.030   4.669 -22.831  0.00  0.00    +0.292 HD
ENDBRANCH  15  18
ENDBRANCH   4  12
BRANCH  10  20
ATOM     20  O   UNL     1       3.248   0.849 -20.491  0.00  0.00    -0.506 OA
ATOM     21  H   UNL     1       3.345  -0.062 -20.296  0.00  0.00    +0.292 HD
ENDBRANCH  10  20
BRANCH   8  22
ATOM     22  O   UNL     1       4.157   1.613 -24.834  0.00  0.00    -0.507 OA
ATOM     23  H   UNL     1       4.441   2.427 -25.202  0.00  0.00    +0.292 HD
ENDBRANCH   8  22
TORSDOF 4
ENDMDL
MODEL 2
REMARK VINA RESULT:    -9.300      1.533      6.382
REMARK INTER + INTRA:         -11.129
REMARK INTER:                 -10.663
REMARK INTRA:                  -0.466
REMARK UNBOUND:                -0.470
REMARK  Name = ZINC000000156701
REMARK  4 active torsions:
REMARK  status: ('A' for Active; 'I' for Inactive)
REMARK    1  A    between atoms: C_4  and  C_5
REMARK    2  A    between atoms: C_8  and  O_9
REMARK    3  A    between atoms: C_15  and  O_16
REMARK    4  A    between atoms: C_18  and  O_19
REMARK                            x       y       z     vdW  Elec       q    Type
REMARK                         _______ _______ _______ _____ _____    ______ ____
ROOT
ATOM      1  O   UNL     1      -3.791   2.454 -20.520  0.00  0.00    -0.292 OA
ATOM      2  C   UNL     1      -2.993   2.688 -21.519  0.00  0.00    +0.174 C 
ATOM      3  C   UNL     1      -1.720   2.452 -21.403  0.00  0.00    +0.129 C 
ATOM      4  C   UNL     1      -0.922   2.686 -22.403  0.00  0.00    +0.211 C 
ATOM      5  O   UNL     1      -1.397   3.156 -23.517  0.00  0.00    -0.483 OA
ATOM      6  C   UNL     1      -2.670   3.392 -23.633  0.00  0.00    +0.139 A 
ATOM      7  C   UNL     1      -3.146   3.862 -24.748  0.00  0.00    +0.092 A 
ATOM      8  C   UNL     1      -4.419   4.098 -24.864  0.00  0.00    +0.124 A 
ATOM      9  C   UNL     1      -5.217   3.864 -23.864  0.00  0.00    +0.091 A 
ATOM     10  C   UNL     1      -4.742   3.394 -22.750  0.00  0.00    +0.134 A 
ATOM     11  C   UNL     1      -3.468   3.158 -22.634  0.00  0.00    +0.101 A 
ENDROOT
BRANCH   4  12
ATOM     12  C   UNL     1       0.351   2.450 -22.286  0.00  0.00    -0.007 A 
ATOM     13  C   UNL     1       1.201   3.099 -23.025  0.00  0.00    +0.011 A 
ATOM     14  C   UNL     1       2.475   2.863 -22.909  0.00  0.00    +0.046 A 
ATOM     15  C   UNL     1       2.897   1.979 -22.055  0.00  0.00    +0.117 A 
ATOM     16  C   UNL     1       2.046   1.330 -21.316  0.00  0.00    +0.046 A 
ATOM     17  C   UNL     1       0.773   1.566 -21.432  0.00  0.00    +0.011 A 
BRANCH  15  18
ATOM     18  O   UNL     1       4.170   1.744 -21.939  0.00  0.00    -0.507 OA
ATOM     19  H   UNL     1       4.533   0.950 -22.279  0.00  0.00    +0.292 HD
ENDBRANCH  15  18
ENDBRANCH   4  12
BRANCH  10  20
ATOM     20  O   UNL     1      -5.540   3.160 -21.750  0.00  0.00    -0.506 OA
ATOM     21  H   UNL     1      -5.763   2.278 -21.526  0.00  0.00    +0.292 HD
ENDBRANCH  10  20
BRANCH   8  22
ATOM     22  O   UNL     1      -4.894   4.568 -25.978  0.00  0.00    -0.507 OA
ATOM     23  H   UNL     1      -4.659   5.429 -26.262  0.00  0.00    +0.292 HD
ENDBRANCH   8  22
TORSDOF 4
ENDMDL
MODEL 3
REMARK VINA RESULT:    -9.191      1.492      2.430
REMARK INTER + INTRA:         -11.004
REMARK INTER:                 -10.546
REMARK INTRA:                  -0.458
REMARK UNBOUND:                -0.470
REMARK  Name = ZINC000000156701
REMARK  4 active torsions:
REMARK  status: ('A' for Active; 'I' for Inactive)
REMARK    1  A    between atoms: C_4  and  C_5
REMARK    2  A    between atoms: C_8  and  O_9
REMARK    3  A    between atoms: C_15  and  O_16
REMARK    4  A    between atoms: C_18  and  O_19
REMARK                            x       y       z     vdW  Elec       q    Type
REMARK                         _______ _______ _______ _____ _____    ______ ____
ROOT
ATOM      1  O   UNL     1       1.329   5.258 -23.911  0.00  0.00    -0.292 OA
ATOM      2  C   UNL     1       0.717   4.250 -23.364  0.00  0.00    +0.174 C 
ATOM      3  C   UNL     1      -0.574   4.276 -23.215  0.00  0.00    +0.129 C 
ATOM      4  C   UNL     1      -1.187   3.268 -22.668  0.00  0.00    +0.211 C 
ATOM      5  O   UNL     1      -0.507   2.234 -22.269  0.00  0.00    -0.483 OA
ATOM      6  C   UNL     1       0.784   2.208 -22.417  0.00  0.00    +0.139 A 
ATOM      7  C   UNL     1       1.463   1.174 -22.018  0.00  0.00    +0.092 A 
ATOM      8  C   UNL     1       2.754   1.148 -22.167  0.00  0.00    +0.124 A 
ATOM      9  C   UNL     1       3.366   2.156 -22.714  0.00  0.00    +0.091 A 
ATOM     10  C   UNL     1       2.687   3.189 -23.113  0.00  0.00    +0.134 A 
ATOM     11  C   UNL     1       1.396   3.216 -22.965  0.00  0.00    +0.101 A 
ENDROOT
BRANCH   4  12
ATOM     12  C   UNL     1      -2.478   3.295 -22.521  0.00  0.00    -0.007 A 
ATOM     13  C   UNL     1      -3.007   2.965 -21.380  0.00  0.00    +0.011 A 
ATOM     14  C   UNL     1      -4.299   2.992 -21.231  0.00  0.00    +0.046 A 
ATOM     15  C   UNL     1      -5.060   3.348 -22.223  0.00  0.00    +0.117 A 
ATOM     16  C   UNL     1      -4.530   3.678 -23.363  0.00  0.00    +0.046 A 
ATOM     17  C   UNL     1      -3.239   3.651 -23.512  0.00  0.00    +0.011 A 
BRANCH  15  18
ATOM     18  O   UNL     1      -6.351   3.375 -22.074  0.00  0.00    -0.507 OA
ATOM     19  H   UNL     1      -6.729   3.819 -21.340  0.00  0.00    +0.292 HD
ENDBRANCH  15  18
ENDBRANCH   4  12
BRANCH  10  20
ATOM     20  O   UNL     1       3.300   4.197 -23.660  0.00  0.00    -0.506 OA
ATOM     21  H   UNL     1       4.045   4.577 -23.239  0.00  0.00    +0.292 HD
ENDBRANCH  10  20
BRANCH   8  22
ATOM     22  O   UNL     1       3.433   0.114 -21.767  0.00  0.00    -0.507 OA
ATOM     23  H   UNL     1       3.102  -0.750 -21.916  0.00  0.00    +0.292 HD
ENDBRANCH   8  22
TORSDOF 4
ENDMDL
MODEL 4
REMARK VINA RESULT:    -9.166      1.654      6.832
REMARK INTER + INTRA:         -10.976
REMARK INTER:                 -10.512
REMARK INTRA:                  -0.464
REMARK UNBOUND:                -0.470
REMARK  Name = ZINC000000156701
REMARK  4 active torsions:
REMARK  status: ('A' for Active; 'I' for Inactive)
REMARK    1  A    between atoms: C_4  and  C_5
REMARK    2  A    between atoms: C_8  and  O_9
REMARK    3  A    between atoms: C_15  and  O_16
REMARK    4  A    between atoms: C_18  and  O_19
REMARK                            x       y       z     vdW  Elec       q    Type
REMARK                         _______ _______ _______ _____ _____    ______ ____
ROOT
ATOM      1  O   UNL     1      -2.371   3.759 -26.264  0.00  0.00    -0.292 OA
ATOM      2  C   UNL     1      -2.230   3.472 -25.004  0.00  0.00    +0.174 C 
ATOM      3  C   UNL     1      -1.056   3.175 -24.532  0.00  0.00    +0.129 C 
ATOM      4  C   UNL     1      -0.915   2.888 -23.272  0.00  0.00    +0.211 C 
ATOM      5  O   UNL     1      -1.948   2.898 -22.483  0.00  0.00    -0.483 OA
ATOM      6  C   UNL     1      -3.122   3.196 -22.955  0.00  0.00    +0.139 A 
ATOM      7  C   UNL     1      -4.156   3.206 -22.166  0.00  0.00    +0.092 A 
ATOM      8  C   UNL     1      -5.330   3.504 -22.638  0.00  0.00    +0.124 A 
ATOM      9  C   UNL     1      -5.471   3.790 -23.898  0.00  0.00    +0.091 A 
ATOM     10  C   UNL     1      -4.438   3.780 -24.687  0.00  0.00    +0.134 A 
ATOM     11  C   UNL     1      -3.263   3.482 -24.215  0.00  0.00    +0.101 A 
ENDROOT
BRANCH   4  12
ATOM     12  C   UNL     1       0.260   2.591 -22.802  0.00  0.00    -0.007 A 
ATOM     13  C   UNL     1       0.373   1.727 -21.836  0.00  0.00    +0.011 A 
ATOM     14  C   UNL     1       1.548   1.430 -21.365  0.00  0.00    +0.046 A 
ATOM     15  C   UNL     1       2.609   1.995 -21.859  0.00  0.00    +0.117 A 
ATOM     16  C   UNL     1       2.495   2.858 -22.825  0.00  0.00    +0.046 A 
ATOM     17  C   UNL     1       1.321   3.156 -23.296  0.00  0.00    +0.011 A 
BRANCH  15  18
ATOM     18  O   UNL     1       3.783   1.697 -21.388  0.00  0.00    -0.507 OA
ATOM     19  H   UNL     1       4.296   1.027 -21.795  0.00  0.00    +0.292 HD
ENDBRANCH  15  18
ENDBRANCH   4  12
BRANCH  10  20
ATOM     20  O   UNL     1      -4.579   4.067 -25.947  0.00  0.00    -0.506 OA
ATOM     21  H   UNL     1      -3.885   3.885 -26.549  0.00  0.00    +0.292 HD
ENDBRANCH  10  20
BRANCH   8  22
ATOM     22  O   UNL     1      -6.363   3.514 -21.849  0.00  0.00    -0.507 OA
ATOM     23  H   UNL     1      -6.421   4.146 -21.160  0.00  0.00    +0.292 HD
ENDBRANCH   8  22
TORSDOF 4
ENDMDL
MODEL 5
REMARK VINA RESULT:    -9.010      2.052      2.910
REMARK INTER + INTRA:         -10.796
REMARK INTER:                 -10.352
REMARK INTRA:                  -0.445
REMARK UNBOUND:                -0.470
REMARK  Name = ZINC000000156701
REMARK  4 active torsions:
REMARK  status: ('A' for Active; 'I' for Inactive)
REMARK    1  A    between atoms: C_4  and  C_5
REMARK    2  A    between atoms: C_8  and  O_9
REMARK    3  A    between atoms: C_15  and  O_16
REMARK    4  A    between atoms: C_18  and  O_19
REMARK                            x       y       z     vdW  Elec       q    Type
REMARK                         _______ _______ _______ _____ _____    ______ ____
ROOT
ATOM      1  O   UNL     1       2.254   5.506 -23.619  0.00  0.00    -0.292 OA
ATOM      2  C   UNL     1       1.502   4.447 -23.569  0.00  0.00    +0.174 C 
ATOM      3  C   UNL     1       0.302   4.478 -24.069  0.00  0.00    +0.129 C 
ATOM      4  C   UNL     1      -0.450   3.419 -24.019  0.00  0.00    +0.211 C 
ATOM      5  O   UNL     1      -0.003   2.329 -23.470  0.00  0.00    -0.483 OA
ATOM      6  C   UNL     1       1.196   2.298 -22.970  0.00  0.00    +0.139 A 
ATOM      7  C   UNL     1       1.644   1.208 -22.421  0.00  0.00    +0.092 A 
ATOM      8  C   UNL     1       2.844   1.177 -21.921  0.00  0.00    +0.124 A 
ATOM      9  C   UNL     1       3.596   2.236 -21.971  0.00  0.00    +0.091 A 
ATOM     10  C   UNL     1       3.149   3.326 -22.520  0.00  0.00    +0.134 A 
ATOM     11  C   UNL     1       1.949   3.357 -23.020  0.00  0.00    +0.101 A 
ENDROOT
BRANCH   4  12
ATOM     12  C   UNL     1      -1.650   3.451 -24.519  0.00  0.00    -0.007 A 
ATOM     13  C   UNL     1      -2.680   3.515 -23.729  0.00  0.00    +0.011 A 
ATOM     14  C   UNL     1      -3.881   3.547 -24.229  0.00  0.00    +0.046 A 
ATOM     15  C   UNL     1      -4.050   3.515 -25.517  0.00  0.00    +0.117 A 
ATOM     16  C   UNL     1      -3.019   3.451 -26.306  0.00  0.00    +0.046 A 
ATOM     17  C   UNL     1      -1.819   3.419 -25.808  0.00  0.00    +0.011 A 
BRANCH  15  18
ATOM     18  O   UNL     1      -5.249   3.547 -26.016  0.00  0.00    -0.507 OA
ATOM     19  H   UNL     1      -5.580   2.810 -26.490  0.00  0.00    +0.292 HD
ENDBRANCH  15  18
ENDBRANCH   4  12
BRANCH  10  20
ATOM     20  O   UNL     1       3.901   4.385 -22.569  0.00  0.00    -0.506 OA
ATOM     21  H   UNL     1       3.974   4.944 -21.821  0.00  0.00    +0.292 HD
ENDBRANCH  10  20
BRANCH   8  22
ATOM     22  O   UNL     1       3.291   0.088 -21.372  0.00  0.00    -0.507 OA
ATOM     23  H   UNL     1       3.122  -0.084 -20.466  0.00  0.00    +0.292 HD
ENDBRANCH   8  22
TORSDOF 4
ENDMDL
MODEL 6
REMARK VINA RESULT:    -8.575      2.202      3.012
REMARK INTER + INTRA:         -10.298
REMARK INTER:                  -9.849
REMARK INTRA:                  -0.449
REMARK UNBOUND:                -0.470
REMARK  Name = ZINC000000156701
REMARK  4 active torsions:
REMARK  status: ('A' for Active; 'I' for Inactive)
REMARK    1  A    between atoms: C_4  and  C_5
REMARK    2  A    between atoms: C_8  and  O_9
REMARK    3  A    between atoms: C_15  and  O_16
REMARK    4  A    between atoms: C_18  and  O_19
REMARK                            x       y       z     vdW  Elec       q    Type
REMARK                         _______ _______ _______ _____ _____    ______ ____
ROOT
ATOM      1  O   UNL     1       2.142   1.162 -24.360  0.00  0.00    -0.292 OA
ATOM      2  C   UNL     1       1.594   2.279 -23.985  0.00  0.00    +0.174 C 
ATOM      3  C   UNL     1       0.300   2.394 -23.963  0.00  0.00    +0.129 C 
ATOM      4  C   UNL     1      -0.248   3.511 -23.588  0.00  0.00    +0.211 C 
ATOM      5  O   UNL     1       0.498   4.515 -23.235  0.00  0.00    -0.483 OA
ATOM      6  C   UNL     1       1.793   4.401 -23.258  0.00  0.00    +0.139 A 
ATOM      7  C   UNL     1       2.540   5.405 -22.905  0.00  0.00    +0.092 A 
ATOM      8  C   UNL     1       3.835   5.291 -22.928  0.00  0.00    +0.124 A 
ATOM      9  C   UNL     1       4.383   4.173 -23.303  0.00  0.00    +0.091 A 
ATOM     10  C   UNL     1       3.636   3.170 -23.655  0.00  0.00    +0.134 A 
ATOM     11  C   UNL     1       2.341   3.283 -23.633  0.00  0.00    +0.101 A 
ENDROOT
BRANCH   4  12
ATOM     12  C   UNL     1      -1.543   3.624 -23.565  0.00  0.00    -0.007 A 
ATOM     13  C   UNL     1      -2.171   4.098 -24.601  0.00  0.00    +0.011 A 
ATOM     14  C   UNL     1      -3.466   4.211 -24.580  0.00  0.00    +0.046 A 
ATOM     15  C   UNL     1      -4.133   3.850 -23.524  0.00  0.00    +0.117 A 
ATOM     16  C   UNL     1      -3.505   3.377 -22.489  0.00  0.00    +0.046 A 
ATOM     17  C   UNL     1      -2.210   3.263 -22.510  0.00  0.00    +0.011 A 
BRANCH  15  18
ATOM     18  O   UNL     1      -5.427   3.964 -23.503  0.00  0.00    -0.507 OA
ATOM     19  H   UNL     1      -5.926   3.793 -24.278  0.00  0.00    +0.292 HD
ENDBRANCH  15  18
ENDBRANCH   4  12
BRANCH  10  20
ATOM     20  O   UNL     1       4.184   2.052 -24.030  0.00  0.00    -0.506 OA
ATOM     21  H   UNL     1       3.703   1.250 -23.968  0.00  0.00    +0.292 HD
ENDBRANCH  10  20
BRANCH   8  22
ATOM     22  O   UNL     1       4.582   6.295 -22.575  0.00  0.00    -0.507 OA
ATOM     23  H   UNL     1       4.198   7.039 -22.156  0.00  0.00    +0.292 HD
ENDBRANCH   8  22
TORSDOF 4
ENDMDL
MODEL 7
REMARK VINA RESULT:    -8.389      2.014      6.698
REMARK INTER + INTRA:         -10.085
REMARK INTER:                  -9.638
REMARK INTRA:                  -0.448
REMARK UNBOUND:                -0.470
REMARK  Name = ZINC000000156701
REMARK  4 active torsions:
REMARK  status: ('A' for Active; 'I' for Inactive)
REMARK    1  A    between atoms: C_4  and  C_5
REMARK    2  A    between atoms: C_8  and  O_9
REMARK    3  A    between atoms: C_15  and  O_16
REMARK    4  A    between atoms: C_18  and  O_19
REMARK                            x       y       z     vdW  Elec       q    Type
REMARK                         _______ _______ _______ _____ _____    ______ ____
ROOT
ATOM      1  O   UNL     1      -2.188   3.537 -25.897  0.00  0.00    -0.292 OA
ATOM      2  C   UNL     1      -1.520   3.347 -24.798  0.00  0.00    +0.174 C 
ATOM      3  C   UNL     1      -0.223   3.262 -24.831  0.00  0.00    +0.129 C 
ATOM      4  C   UNL     1       0.444   3.071 -23.732  0.00  0.00    +0.211 C 
ATOM      5  O   UNL     1      -0.184   2.965 -22.600  0.00  0.00    -0.483 OA
ATOM      6  C   UNL     1      -1.481   3.050 -22.566  0.00  0.00    +0.139 A 
ATOM      7  C   UNL     1      -2.111   2.944 -21.433  0.00  0.00    +0.092 A 
ATOM      8  C   UNL     1      -3.407   3.029 -21.400  0.00  0.00    +0.124 A 
ATOM      9  C   UNL     1      -4.075   3.220 -22.499  0.00  0.00    +0.091 A 
ATOM     10  C   UNL     1      -3.446   3.326 -23.631  0.00  0.00    +0.134 A 
ATOM     11  C   UNL     1      -2.149   3.241 -23.665  0.00  0.00    +0.101 A 
ENDROOT
BRANCH   4  12
ATOM     12  C   UNL     1       1.741   2.986 -23.767  0.00  0.00    -0.007 A 
ATOM     13  C   UNL     1       2.467   3.934 -23.251  0.00  0.00    +0.011 A 
ATOM     14  C   UNL     1       3.764   3.850 -23.286  0.00  0.00    +0.046 A 
ATOM     15  C   UNL     1       4.335   2.819 -23.836  0.00  0.00    +0.117 A 
ATOM     16  C   UNL     1       3.608   1.873 -24.352  0.00  0.00    +0.046 A 
ATOM     17  C   UNL     1       2.312   1.956 -24.318  0.00  0.00    +0.011 A 
BRANCH  15  18
ATOM     18  O   UNL     1       5.631   2.736 -23.870  0.00  0.00    -0.507 OA
ATOM     19  H   UNL     1       6.120   2.694 -23.072  0.00  0.00    +0.292 HD
ENDBRANCH  15  18
ENDBRANCH   4  12
BRANCH  10  20
ATOM     20  O   UNL     1      -4.114   3.516 -24.730  0.00  0.00    -0.506 OA
ATOM     21  H   UNL     1      -4.745   2.883 -25.011  0.00  0.00    +0.292 HD
ENDBRANCH  10  20
BRANCH   8  22
ATOM     22  O   UNL     1      -4.036   2.923 -20.267  0.00  0.00    -0.507 OA
ATOM     23  H   UNL     1      -3.894   2.176 -19.720  0.00  0.00    +0.292 HD
ENDBRANCH   8  22
TORSDOF 4
ENDMDL
MODEL 8
REMARK VINA RESULT:    -7.937      1.781      6.627
REMARK INTER + INTRA:          -9.567
REMARK INTER:                  -9.103
REMARK INTRA:                  -0.463
REMARK UNBOUND:                -0.470
REMARK  Name = ZINC000000156701
REMARK  4 active torsions:
REMARK  status: ('A' for Active; 'I' for Inactive)
REMARK    1  A    between atoms: C_4  and  C_5
REMARK    2  A    between atoms: C_8  and  O_9
REMARK    3  A    between atoms: C_15  and  O_16
REMARK    4  A    between atoms: C_18  and  O_19
REMARK                            x       y       z     vdW  Elec       q    Type
REMARK                         _______ _______ _______ _____ _____    ______ ____
ROOT
ATOM      1  O   UNL     1      -0.071   3.563 -25.862  0.00  0.00    -0.292 OA
ATOM      2  C   UNL     1      -0.045   3.196 -24.615  0.00  0.00    +0.174 C 
ATOM      3  C   UNL     1       1.089   2.927 -24.040  0.00  0.00    +0.129 C 
ATOM      4  C   UNL     1       1.114   2.560 -22.793  0.00  0.00    +0.211 C 
ATOM      5  O   UNL     1       0.006   2.462 -22.122  0.00  0.00    -0.483 OA
ATOM      6  C   UNL     1      -1.128   2.732 -22.697  0.00  0.00    +0.139 A 
ATOM      7  C   UNL     1      -2.238   2.634 -22.025  0.00  0.00    +0.092 A 
ATOM      8  C   UNL     1      -3.372   2.904 -22.601  0.00  0.00    +0.124 A 
ATOM      9  C   UNL     1      -3.397   3.270 -23.848  0.00  0.00    +0.091 A 
ATOM     10  C   UNL     1      -2.289   3.368 -24.519  0.00  0.00    +0.134 A 
ATOM     11  C   UNL     1      -1.154   3.098 -23.944  0.00  0.00    +0.101 A 
ENDROOT
BRANCH   4  12
ATOM     12  C   UNL     1       2.249   2.290 -22.219  0.00  0.00    -0.007 A 
ATOM     13  C   UNL     1       3.314   2.963 -22.540  0.00  0.00    +0.011 A 
ATOM     14  C   UNL     1       4.449   2.695 -21.966  0.00  0.00    +0.046 A 
ATOM     15  C   UNL     1       4.519   1.754 -21.072  0.00  0.00    +0.117 A 
ATOM     16  C   UNL     1       3.454   1.082 -20.751  0.00  0.00    +0.046 A 
ATOM     17  C   UNL     1       2.319   1.350 -21.324  0.00  0.00    +0.011 A 
BRANCH  15  18
ATOM     18  O   UNL     1       5.654   1.486 -20.498  0.00  0.00    -0.507 OA
ATOM     19  H   UNL     1       6.446   1.493 -20.999  0.00  0.00    +0.292 HD
ENDBRANCH  15  18
ENDBRANCH   4  12
BRANCH  10  20
ATOM     20  O   UNL     1      -2.314   3.735 -25.766  0.00  0.00    -0.506 OA
ATOM     21  H   UNL     1      -2.782   3.223 -26.396  0.00  0.00    +0.292 HD
ENDBRANCH  10  20
BRANCH   8  22
ATOM     22  O   UNL     1      -4.480   2.806 -21.929  0.00  0.00    -0.507 OA
ATOM     23  H   UNL     1      -5.301   2.958 -22.355  0.00  0.00    +0.292 HD
ENDBRANCH   8  22
TORSDOF 4
ENDMDL
MODEL 9
REMARK VINA RESULT:    -7.634      2.024      6.448
REMARK INTER + INTRA:          -9.220
REMARK INTER:                  -8.750
REMARK INTRA:                  -0.470
REMARK UNBOUND:                -0.470
REMARK  Name = ZINC000000156701
REMARK  4 active torsions:
REMARK  status: ('A' for Active; 'I' for Inactive)
REMARK    1  A    between atoms: C_4  and  C_5
REMARK    2  A    between atoms: C_8  and  O_9
REMARK    3  A    between atoms: C_15  and  O_16
REMARK    4  A    between atoms: C_18  and  O_19
REMARK                            x       y       z     vdW  Elec       q    Type
REMARK                         _______ _______ _______ _____ _____    ______ ____
ROOT
ATOM      1  O   UNL     1      -0.340   0.982 -20.765  0.00  0.00    -0.292 OA
ATOM      2  C   UNL     1       0.261   1.770 -21.606  0.00  0.00    +0.174 C 
ATOM      3  C   UNL     1       1.558   1.757 -21.698  0.00  0.00    +0.129 C 
ATOM      4  C   UNL     1       2.158   2.545 -22.539  0.00  0.00    +0.211 C 
ATOM      5  O   UNL     1       1.463   3.347 -23.289  0.00  0.00    -0.483 OA
ATOM      6  C   UNL     1       0.166   3.361 -23.197  0.00  0.00    +0.139 A 
ATOM      7  C   UNL     1      -0.531   4.164 -23.947  0.00  0.00    +0.092 A 
ATOM      8  C   UNL     1      -1.827   4.177 -23.855  0.00  0.00    +0.124 A 
ATOM      9  C   UNL     1      -2.428   3.389 -23.014  0.00  0.00    +0.091 A 
ATOM     10  C   UNL     1      -1.732   2.587 -22.264  0.00  0.00    +0.134 A 
ATOM     11  C   UNL     1      -0.435   2.573 -22.356  0.00  0.00    +0.101 A 
ENDROOT
BRANCH   4  12
ATOM     12  C   UNL     1       3.455   2.530 -22.630  0.00  0.00    -0.007 A 
ATOM     13  C   UNL     1       4.051   3.268 -23.519  0.00  0.00    +0.011 A 
ATOM     14  C   UNL     1       5.348   3.254 -23.611  0.00  0.00    +0.046 A 
ATOM     15  C   UNL     1       6.048   2.503 -22.814  0.00  0.00    +0.117 A 
ATOM     16  C   UNL     1       5.451   1.765 -21.926  0.00  0.00    +0.046 A 
ATOM     17  C   UNL     1       4.155   1.779 -21.834  0.00  0.00    +0.011 A 
BRANCH  15  18
ATOM     18  O   UNL     1       7.345   2.489 -22.906  0.00  0.00    -0.507 OA
ATOM     19  H   UNL     1       7.792   1.693 -23.117  0.00  0.00    +0.292 HD
ENDBRANCH  15  18
ENDBRANCH   4  12
BRANCH  10  20
ATOM     20  O   UNL     1      -2.333   1.798 -21.423  0.00  0.00    -0.506 OA
ATOM     21  H   UNL     1      -2.962   1.177 -21.731  0.00  0.00    +0.292 HD
ENDBRANCH  10  20
BRANCH   8  22
ATOM     22  O   UNL     1      -2.523   4.979 -24.604  0.00  0.00    -0.507 OA
ATOM     23  H   UNL     1      -2.111   5.717 -25.010  0.00  0.00    +0.292 HD
ENDBRANCH   8  22
TORSDOF 4
ENDMDL
