MODEL 1
REMARK VINA RESULT:   -12.689      0.000      0.000
REMARK INTER + INTRA:          -8.860
REMARK INTER:                 -12.747
REMARK INTRA:                   3.886
REMARK UNBOUND:                 6.796
REMARK  Name = ZINC000004104844
REMARK  8 active torsions:
REMARK  status: ('A' for Active; 'I' for Inactive)
REMARK    1  A    between atoms: C_1  and  C_2
REMARK    2  A    between atoms: C_7  and  C_8
REMARK    3  A    between atoms: C_7  and  C_9
REMARK    4  A    between atoms: C_13  and  C_14
REMARK    5  A    between atoms: C_15  and  O_16
REMARK    6  A    between atoms: C_15  and  C_17
REMARK    7  A    between atoms: C_17  and  C_18
REMARK    8  A    between atoms: C_18  and  C_19
REMARK                            x       y       z     vdW  Elec       q    Type
REMARK                         _______ _______ _______ _____ _____    ______ ____
ROOT
ATOM      1  C   UNL     1      -0.339   3.722 -25.501  0.00  0.00    +0.018 C 
ATOM      2  C   UNL     1      -1.396   3.639 -24.728  0.00  0.00    +0.084 C 
ATOM      3  C   UNL     1      -2.591   3.624 -25.270  0.00  0.00    +0.139 C 
ATOM      4  C   UNL     1      -3.655   3.541 -24.504  0.00  0.00    +0.079 C 
ATOM      5  C   UNL     1      -3.525   3.473 -23.204  0.00  0.00    +0.010 C 
ATOM      6  C   UNL     1      -4.586   3.390 -22.437  0.00  0.00    -0.031 C 
ATOM      7  C   UNL     1      -4.457   3.321 -21.131  0.00  0.00    +0.007 C 
ATOM      8  C   UNL     1      -3.260   3.336 -20.593  0.00  0.00    +0.001 C 
ATOM      9  C   UNL     1      -2.196   3.419 -21.355  0.00  0.00    +0.010 C 
ATOM     10  C   UNL     1      -5.160   3.435 -23.618  0.00  0.00    +0.011 C 
ATOM     11  C   UNL     1      -5.848   3.322 -22.083  0.00  0.00    +0.011 C 
ATOM     12  C   UNL     1      -2.333   3.487 -22.661  0.00  0.00    +0.001 C 
ATOM     13  C   UNL     1      -1.491   3.487 -22.089  0.00  0.00    +0.014 C 
ATOM     14  O   UNL     1      -2.724   3.693 -26.573  0.00  0.00    -0.297 OA
ATOM     15  C   UNL     1      -1.263   3.570 -23.426  0.00  0.00    +0.081 C 
ENDROOT
BRANCH  15  16
ATOM     16  O   UNL     1      -0.556   3.535 -22.323  0.00  0.00    -0.387 OA
ATOM     17  H   UNL     1       0.306   3.953 -22.477  0.00  0.00    +0.210 HD
ENDBRANCH  15  16
BRANCH  15  18
ATOM     18  C   UNL     1      -0.007   3.640 -23.814  0.00  0.00    +0.041 C 
BRANCH  18  19
ATOM     19  C   UNL     1       0.673   4.734 -23.720  0.00  0.00    +0.041 C 
BRANCH  19  20
ATOM     20  C   UNL     1       1.959   4.680 -23.460  0.00  0.00    -0.010 A 
ATOM     21  C   UNL     1       2.725   3.629 -23.626  0.00  0.00    +0.044 A 
ATOM     22  C   UNL     1       3.945   3.954 -23.261  0.00  0.00    +0.195 A 
ATOM     23  O   UNL     1       3.929   5.207 -22.870  0.00  0.00    -0.471 OA
ATOM     24  C   UNL     1       2.702   5.656 -22.993  0.00  0.00    +0.198 A 
ENDBRANCH  19  20
ENDBRANCH  18  19
ENDBRANCH  15  18
TORSDOF 4
ENDMDL
MODEL 2
REMARK VINA RESULT:   -12.183      2.026      2.386
REMARK INTER + INTRA:          -8.236
REMARK INTER:                 -12.377
REMARK INTRA:                   4.141
REMARK UNBOUND:                 6.796
REMARK  Name = ZINC000004104844
REMARK  8 active torsions:
REMARK  status: ('A' for Active; 'I' for Inactive)
REMARK    1  A    between atoms: C_1  and  C_2
REMARK    2  A    between atoms: C_7  and  C_8
REMARK    3  A    between atoms: C_7  and  C_9
REMARK    4  A    between atoms: C_13  and  C_14
REMARK    5  A    between atoms: C_15  and  O_16
REMARK    6  A    between atoms: C_15  and  C_17
REMARK    7  A    between atoms: C_17  and  C_18
REMARK    8  A    between atoms: C_18  and  C_19
REMARK                            x       y       z     vdW  Elec       q    Type
REMARK                         _______ _______ _______ _____ _____    ______ ____
ROOT
ATOM      1  C   UNL     1       0.779   2.878 -24.041  0.00  0.00    +0.018 C 
ATOM      2  C   UNL     1      -0.499   3.015 -23.775  0.00  0.00    +0.084 C 
ATOM      3  C   UNL     1      -1.317   3.405 -24.723  0.00  0.00    +0.139 C 
ATOM      4  C   UNL     1      -2.598   3.544 -24.465  0.00  0.00    +0.079 C 
ATOM      5  C   UNL     1      -3.057   3.295 -23.266  0.00  0.00    +0.010 C 
ATOM      6  C   UNL     1      -4.335   3.433 -23.006  0.00  0.00    -0.031 C 
ATOM      7  C   UNL     1      -4.798   3.184 -21.802  0.00  0.00    +0.007 C 
ATOM      8  C   UNL     1      -3.977   2.794 -20.856  0.00  0.00    +0.001 C 
ATOM      9  C   UNL     1      -2.698   2.655 -21.110  0.00  0.00    +0.010 C 
ATOM     10  C   UNL     1      -4.322   3.774 -24.274  0.00  0.00    +0.011 C 
ATOM     11  C   UNL     1      -5.610   3.691 -23.190  0.00  0.00    +0.011 C 
ATOM     12  C   UNL     1      -2.242   2.906 -22.317  0.00  0.00    +0.001 C 
ATOM     13  C   UNL     1      -1.749   2.600 -21.481  0.00  0.00    +0.014 C 
ATOM     14  O   UNL     1      -0.859   3.655 -25.926  0.00  0.00    -0.297 OA
ATOM     15  C   UNL     1      -0.957   2.765 -22.573  0.00  0.00    +0.081 C 
ENDROOT
BRANCH  15  16
ATOM     16  O   UNL     1      -0.818   2.404 -21.320  0.00  0.00    -0.387 OA
ATOM     17  H   UNL     1      -0.826   1.436 -21.259  0.00  0.00    +0.210 HD
ENDBRANCH  15  16
BRANCH  15  18
ATOM     18  C   UNL     1       0.327   2.515 -22.420  0.00  0.00    +0.041 C 
BRANCH  18  19
ATOM     19  C   UNL     1       0.755   1.339 -22.097  0.00  0.00    +0.041 C 
BRANCH  19  20
ATOM     20  C   UNL     1       2.039   1.150 -21.890  0.00  0.00    -0.010 A 
ATOM     21  C   UNL     1       2.743   1.695 -20.928  0.00  0.00    +0.044 A 
ATOM     22  C   UNL     1       3.982   1.272 -21.042  0.00  0.00    +0.195 A 
ATOM     23  O   UNL     1       4.040   0.466 -22.077  0.00  0.00    -0.471 OA
ATOM     24  C   UNL     1       2.839   0.390 -22.601  0.00  0.00    +0.198 A 
ENDBRANCH  19  20
ENDBRANCH  18  19
ENDBRANCH  15  18
TORSDOF 4
ENDMDL
MODEL 3
REMARK VINA RESULT:   -11.888      1.790      3.278
REMARK INTER + INTRA:          -7.872
REMARK INTER:                 -11.766
REMARK INTRA:                   3.893
REMARK UNBOUND:                 6.796
REMARK  Name = ZINC000004104844
REMARK  8 active torsions:
REMARK  status: ('A' for Active; 'I' for Inactive)
REMARK    1  A    between atoms: C_1  and  C_2
REMARK    2  A    between atoms: C_7  and  C_8
REMARK    3  A    between atoms: C_7  and  C_9
REMARK    4  A    between atoms: C_13  and  C_14
REMARK    5  A    between atoms: C_15  and  O_16
REMARK    6  A    between atoms: C_15  and  C_17
REMARK    7  A    between atoms: C_17  and  C_18
REMARK    8  A    between atoms: C_18  and  C_19
REMARK                            x       y       z     vdW  Elec       q    Type
REMARK                         _______ _______ _______ _____ _____    ______ ____
ROOT
ATOM      1  C   UNL     1      -0.717   1.920 -21.157  0.00  0.00    +0.018 C 
ATOM      2  C   UNL     1      -1.632   2.373 -21.980  0.00  0.00    +0.084 C 
ATOM      3  C   UNL     1      -2.804   2.731 -21.509  0.00  0.00    +0.139 C 
ATOM      4  C   UNL     1      -3.726   3.185 -22.327  0.00  0.00    +0.079 C 
ATOM      5  C   UNL     1      -3.479   3.282 -23.608  0.00  0.00    +0.010 C 
ATOM      6  C   UNL     1      -4.398   3.736 -24.426  0.00  0.00    -0.031 C 
ATOM      7  C   UNL     1      -4.151   3.833 -25.713  0.00  0.00    +0.007 C 
ATOM      8  C   UNL     1      -2.978   3.475 -26.181  0.00  0.00    +0.001 C 
ATOM      9  C   UNL     1      -2.056   3.021 -25.367  0.00  0.00    +0.010 C 
ATOM     10  C   UNL     1      -5.049   3.807 -23.288  0.00  0.00    +0.011 C 
ATOM     11  C   UNL     1      -5.546   4.214 -24.847  0.00  0.00    +0.011 C 
ATOM     12  C   UNL     1      -2.310   2.926 -24.081  0.00  0.00    +0.001 C 
ATOM     13  C   UNL     1      -1.466   2.695 -24.601  0.00  0.00    +0.014 C 
ATOM     14  O   UNL     1      -3.054   2.634 -20.226  0.00  0.00    -0.297 OA
ATOM     15  C   UNL     1      -1.382   2.469 -23.263  0.00  0.00    +0.081 C 
ENDROOT
BRANCH  15  16
ATOM     16  O   UNL     1      -0.613   2.343 -24.318  0.00  0.00    -0.387 OA
ATOM     17  H   UNL     1      -1.143   2.037 -25.070  0.00  0.00    +0.210 HD
ENDBRANCH  15  16
BRANCH  15  18
ATOM     18  C   UNL     1      -0.243   1.989 -22.810  0.00  0.00    +0.041 C 
BRANCH  18  19
ATOM     19  C   UNL     1       0.797   2.740 -22.657  0.00  0.00    +0.041 C 
BRANCH  19  20
ATOM     20  C   UNL     1       1.971   2.315 -23.065  0.00  0.00    -0.010 A 
ATOM     21  C   UNL     1       2.837   3.018 -23.754  0.00  0.00    +0.044 A 
ATOM     22  C   UNL     1       3.889   2.261 -23.976  0.00  0.00    +0.195 A 
ATOM     23  O   UNL     1       3.669   1.092 -23.422  0.00  0.00    -0.471 OA
ATOM     24  C   UNL     1       2.483   1.124 -22.859  0.00  0.00    +0.198 A 
ENDBRANCH  19  20
ENDBRANCH  18  19
ENDBRANCH  15  18
TORSDOF 4
ENDMDL
MODEL 4
REMARK VINA RESULT:   -11.631      2.011      5.778
REMARK INTER + INTRA:          -7.555
REMARK INTER:                 -11.611
REMARK INTRA:                   4.056
REMARK UNBOUND:                 6.796
REMARK  Name = ZINC000004104844
REMARK  8 active torsions:
REMARK  status: ('A' for Active; 'I' for Inactive)
REMARK    1  A    between atoms: C_1  and  C_2
REMARK    2  A    between atoms: C_7  and  C_8
REMARK    3  A    between atoms: C_7  and  C_9
REMARK    4  A    between atoms: C_13  and  C_14
REMARK    5  A    between atoms: C_15  and  O_16
REMARK    6  A    between atoms: C_15  and  C_17
REMARK    7  A    between atoms: C_17  and  C_18
REMARK    8  A    between atoms: C_18  and  C_19
REMARK                            x       y       z     vdW  Elec       q    Type
REMARK                         _______ _______ _______ _____ _____    ______ ____
ROOT
ATOM      1  C   UNL     1      -1.271   3.700 -25.443  0.00  0.00    +0.018 C 
ATOM      2  C   UNL     1      -0.250   3.347 -24.698  0.00  0.00    +0.084 C 
ATOM      3  C   UNL     1       0.968   3.626 -25.098  0.00  0.00    +0.139 C 
ATOM      4  C   UNL     1       1.995   3.276 -24.358  0.00  0.00    +0.079 C 
ATOM      5  C   UNL     1       1.806   2.652 -23.225  0.00  0.00    +0.010 C 
ATOM      6  C   UNL     1       2.831   2.301 -22.484  0.00  0.00    -0.031 C 
ATOM      7  C   UNL     1       2.642   1.673 -21.345  0.00  0.00    +0.007 C 
ATOM      8  C   UNL     1       1.423   1.396 -20.948  0.00  0.00    +0.001 C 
ATOM      9  C   UNL     1       0.395   1.744 -21.685  0.00  0.00    +0.010 C 
ATOM     10  C   UNL     1       3.458   2.876 -23.485  0.00  0.00    +0.011 C 
ATOM     11  C   UNL     1       4.075   2.152 -22.093  0.00  0.00    +0.011 C 
ATOM     12  C   UNL     1       0.591   2.372 -22.823  0.00  0.00    +0.001 C 
ATOM     13  C   UNL     1      -0.276   2.084 -22.374  0.00  0.00    +0.014 C 
ATOM     14  O   UNL     1       1.160   4.253 -26.235  0.00  0.00    -0.297 OA
ATOM     15  C   UNL     1      -0.442   2.721 -23.563  0.00  0.00    +0.081 C 
ENDROOT
BRANCH  15  16
ATOM     16  O   UNL     1      -1.199   2.181 -22.639  0.00  0.00    -0.387 OA
ATOM     17  H   UNL     1      -2.131   2.266 -22.893  0.00  0.00    +0.210 HD
ENDBRANCH  15  16
BRANCH  15  18
ATOM     18  C   UNL     1      -1.679   2.886 -23.983  0.00  0.00    +0.041 C 
BRANCH  18  19
ATOM     19  C   UNL     1      -2.393   3.896 -23.609  0.00  0.00    +0.041 C 
BRANCH  19  20
ATOM     20  C   UNL     1      -3.654   3.716 -23.286  0.00  0.00    -0.010 A 
ATOM     21  C   UNL     1      -4.093   3.367 -22.101  0.00  0.00    +0.044 A 
ATOM     22  C   UNL     1      -5.403   3.286 -22.162  0.00  0.00    +0.195 A 
ATOM     23  O   UNL     1      -5.770   3.585 -23.386  0.00  0.00    -0.471 OA
ATOM     24  C   UNL     1      -4.689   3.851 -24.082  0.00  0.00    +0.198 A 
ENDBRANCH  19  20
ENDBRANCH  18  19
ENDBRANCH  15  18
TORSDOF 4
ENDMDL
MODEL 5
REMARK VINA RESULT:   -11.448      1.396      2.893
REMARK INTER + INTRA:          -7.329
REMARK INTER:                 -12.223
REMARK INTRA:                   4.894
REMARK UNBOUND:                 6.796
REMARK  Name = ZINC000004104844
REMARK  8 active torsions:
REMARK  status: ('A' for Active; 'I' for Inactive)
REMARK    1  A    between atoms: C_1  and  C_2
REMARK    2  A    between atoms: C_7  and  C_8
REMARK    3  A    between atoms: C_7  and  C_9
REMARK    4  A    between atoms: C_13  and  C_14
REMARK    5  A    between atoms: C_15  and  O_16
REMARK    6  A    between atoms: C_15  and  C_17
REMARK    7  A    between atoms: C_17  and  C_18
REMARK    8  A    between atoms: C_18  and  C_19
REMARK                            x       y       z     vdW  Elec       q    Type
REMARK                         _______ _______ _______ _____ _____    ______ ____
ROOT
ATOM      1  C   UNL     1       1.617   1.666 -22.551  0.00  0.00    +0.018 C 
ATOM      2  C   UNL     1       0.358   2.038 -22.554  0.00  0.00    +0.084 C 
ATOM      3  C   UNL     1      -0.386   1.805 -21.499  0.00  0.00    +0.139 C 
ATOM      4  C   UNL     1      -1.646   2.174 -21.494  0.00  0.00    +0.079 C 
ATOM      5  C   UNL     1      -2.160   2.772 -22.537  0.00  0.00    +0.010 C 
ATOM      6  C   UNL     1      -3.419   3.142 -22.535  0.00  0.00    -0.031 C 
ATOM      7  C   UNL     1      -3.936   3.743 -23.582  0.00  0.00    +0.007 C 
ATOM      8  C   UNL     1      -3.189   3.974 -24.636  0.00  0.00    +0.001 C 
ATOM      9  C   UNL     1      -1.930   3.607 -24.644  0.00  0.00    +0.010 C 
ATOM     10  C   UNL     1      -3.335   2.605 -21.339  0.00  0.00    +0.011 C 
ATOM     11  C   UNL     1      -4.649   3.324 -22.113  0.00  0.00    +0.011 C 
ATOM     12  C   UNL     1      -1.419   3.006 -23.592  0.00  0.00    +0.001 C 
ATOM     13  C   UNL     1      -0.986   3.258 -24.478  0.00  0.00    +0.014 C 
ATOM     14  O   UNL     1       0.127   1.205 -20.451  0.00  0.00    -0.297 OA
ATOM     15  C   UNL     1      -0.154   2.637 -23.601  0.00  0.00    +0.081 C 
ENDROOT
BRANCH  15  16
ATOM     16  O   UNL     1      -0.088   3.136 -24.811  0.00  0.00    -0.387 OA
ATOM     17  H   UNL     1      -0.892   3.647 -24.995  0.00  0.00    +0.210 HD
ENDBRANCH  15  16
BRANCH  15  18
ATOM     18  C   UNL     1       1.087   2.440 -23.994  0.00  0.00    +0.041 C 
BRANCH  18  19
ATOM     19  C   UNL     1       1.767   3.366 -24.585  0.00  0.00    +0.041 C 
BRANCH  19  20
ATOM     20  C   UNL     1       2.621   4.086 -23.894  0.00  0.00    -0.010 A 
ATOM     21  C   UNL     1       3.878   3.779 -23.682  0.00  0.00    +0.044 A 
ATOM     22  C   UNL     1       4.411   4.734 -22.953  0.00  0.00    +0.195 A 
ATOM     23  O   UNL     1       3.481   5.629 -22.717  0.00  0.00    -0.471 OA
ATOM     24  C   UNL     1       2.374   5.229 -23.298  0.00  0.00    +0.198 A 
ENDBRANCH  19  20
ENDBRANCH  18  19
ENDBRANCH  15  18
TORSDOF 4
ENDMDL
MODEL 6
REMARK VINA RESULT:   -10.758      1.819      5.949
REMARK INTER + INTRA:          -6.478
REMARK INTER:                 -11.183
REMARK INTRA:                   4.705
REMARK UNBOUND:                 6.796
REMARK  Name = ZINC000004104844
REMARK  8 active torsions:
REMARK  status: ('A' for Active; 'I' for Inactive)
REMARK    1  A    between atoms: C_1  and  C_2
REMARK    2  A    between atoms: C_7  and  C_8
REMARK    3  A    between atoms: C_7  and  C_9
REMARK    4  A    between atoms: C_13  and  C_14
REMARK    5  A    between atoms: C_15  and  O_16
REMARK    6  A    between atoms: C_15  and  C_17
REMARK    7  A    between atoms: C_17  and  C_18
REMARK    8  A    between atoms: C_18  and  C_19
REMARK                            x       y       z     vdW  Elec       q    Type
REMARK                         _______ _______ _______ _____ _____    ______ ____
ROOT
ATOM      1  C   UNL     1      -2.390   2.700 -22.249  0.00  0.00    +0.018 C 
ATOM      2  C   UNL     1      -1.083   2.758 -22.355  0.00  0.00    +0.084 C 
ATOM      3  C   UNL     1      -0.354   1.772 -21.888  0.00  0.00    +0.139 C 
ATOM      4  C   UNL     1       0.954   1.823 -21.990  0.00  0.00    +0.079 C 
ATOM      5  C   UNL     1       1.531   2.852 -22.555  0.00  0.00    +0.010 C 
ATOM      6  C   UNL     1       2.837   2.904 -22.657  0.00  0.00    -0.031 C 
ATOM      7  C   UNL     1       3.418   3.938 -23.225  0.00  0.00    +0.007 C 
ATOM      8  C   UNL     1       2.685   4.922 -23.691  0.00  0.00    +0.001 C 
ATOM      9  C   UNL     1       1.379   4.874 -23.591  0.00  0.00    +0.010 C 
ATOM     10  C   UNL     1       2.702   1.747 -22.052  0.00  0.00    +0.011 C 
ATOM     11  C   UNL     1       4.097   2.552 -22.548  0.00  0.00    +0.011 C 
ATOM     12  C   UNL     1       0.805   3.837 -23.022  0.00  0.00    +0.001 C 
ATOM     13  C   UNL     1       0.391   4.673 -23.430  0.00  0.00    +0.014 C 
ATOM     14  O   UNL     1      -0.930   0.739 -21.321  0.00  0.00    -0.297 OA
ATOM     15  C   UNL     1      -0.509   3.790 -22.921  0.00  0.00    +0.081 C 
ENDROOT
BRANCH  15  16
ATOM     16  O   UNL     1      -0.527   4.955 -23.522  0.00  0.00    -0.387 OA
ATOM     17  H   UNL     1       0.299   5.079 -24.016  0.00  0.00    +0.210 HD
ENDBRANCH  15  16
BRANCH  15  18
ATOM     18  C   UNL     1      -1.781   4.115 -23.016  0.00  0.00    +0.041 C 
BRANCH  18  19
ATOM     19  C   UNL     1      -2.250   4.727 -24.053  0.00  0.00    +0.041 C 
BRANCH  19  20
ATOM     20  C   UNL     1      -3.149   4.135 -24.805  0.00  0.00    -0.010 A 
ATOM     21  C   UNL     1      -2.890   3.357 -25.829  0.00  0.00    +0.044 A 
ATOM     22  C   UNL     1      -4.036   2.952 -26.330  0.00  0.00    +0.195 A 
ATOM     23  O   UNL     1      -5.000   3.482 -25.613  0.00  0.00    -0.471 OA
ATOM     24  C   UNL     1      -4.452   4.213 -24.670  0.00  0.00    +0.198 A 
ENDBRANCH  19  20
ENDBRANCH  18  19
ENDBRANCH  15  18
TORSDOF 4
ENDMDL
MODEL 7
REMARK VINA RESULT:   -10.201      2.532      3.781
REMARK INTER + INTRA:          -5.790
REMARK INTER:                 -10.356
REMARK INTRA:                   4.566
REMARK UNBOUND:                 6.796
REMARK  Name = ZINC000004104844
REMARK  8 active torsions:
REMARK  status: ('A' for Active; 'I' for Inactive)
REMARK    1  A    between atoms: C_1  and  C_2
REMARK    2  A    between atoms: C_7  and  C_8
REMARK    3  A    between atoms: C_7  and  C_9
REMARK    4  A    between atoms: C_13  and  C_14
REMARK    5  A    between atoms: C_15  and  O_16
REMARK    6  A    between atoms: C_15  and  C_17
REMARK    7  A    between atoms: C_17  and  C_18
REMARK    8  A    between atoms: C_18  and  C_19
REMARK                            x       y       z     vdW  Elec       q    Type
REMARK                         _______ _______ _______ _____ _____    ______ ____
ROOT
ATOM      1  C   UNL     1       3.210   3.625 -23.686  0.00  0.00    +0.018 C 
ATOM      2  C   UNL     1       1.955   3.559 -23.309  0.00  0.00    +0.084 C 
ATOM      3  C   UNL     1       1.153   4.567 -23.559  0.00  0.00    +0.139 C 
ATOM      4  C   UNL     1      -0.105   4.509 -23.185  0.00  0.00    +0.079 C 
ATOM      5  C   UNL     1      -0.558   3.451 -22.566  0.00  0.00    +0.010 C 
ATOM      6  C   UNL     1      -1.814   3.390 -22.191  0.00  0.00    -0.031 C 
ATOM      7  C   UNL     1      -2.271   2.327 -21.569  0.00  0.00    +0.007 C 
ATOM      8  C   UNL     1      -1.466   1.321 -21.321  0.00  0.00    +0.001 C 
ATOM      9  C   UNL     1      -0.210   1.376 -21.692  0.00  0.00    +0.010 C 
ATOM     10  C   UNL     1      -1.799   4.578 -22.751  0.00  0.00    +0.011 C 
ATOM     11  C   UNL     1      -3.066   3.746 -22.013  0.00  0.00    +0.011 C 
ATOM     12  C   UNL     1       0.240   2.443 -22.315  0.00  0.00    +0.001 C 
ATOM     13  C   UNL     1       0.723   1.587 -22.048  0.00  0.00    +0.014 C 
ATOM     14  O   UNL     1       1.605   5.630 -24.180  0.00  0.00    -0.297 OA
ATOM     15  C   UNL     1       1.503   2.497 -22.689  0.00  0.00    +0.081 C 
ENDROOT
BRANCH  15  16
ATOM     16  O   UNL     1       1.637   1.302 -22.167  0.00  0.00    -0.387 OA
ATOM     17  H   UNL     1       0.792   1.019 -21.784  0.00  0.00    +0.210 HD
ENDBRANCH  15  16
BRANCH  15  18
ATOM     18  C   UNL     1       2.764   2.170 -22.883  0.00  0.00    +0.041 C 
BRANCH  18  19
ATOM     19  C   UNL     1       3.707   2.619 -22.123  0.00  0.00    +0.041 C 
BRANCH  19  20
ATOM     20  C   UNL     1       4.412   1.781 -21.398  0.00  0.00    -0.010 A 
ATOM     21  C   UNL     1       4.411   0.476 -21.529  0.00  0.00    +0.044 A 
ATOM     22  C   UNL     1       5.235  -0.021 -20.633  0.00  0.00    +0.195 A 
ATOM     23  O   UNL     1       5.742   0.979 -19.951  0.00  0.00    -0.471 OA
ATOM     24  C   UNL     1       5.234   2.093 -20.423  0.00  0.00    +0.198 A 
ENDBRANCH  19  20
ENDBRANCH  18  19
ENDBRANCH  15  18
TORSDOF 4
ENDMDL
