MODEL 1
REMARK VINA RESULT:    -8.468      0.000      0.000
REMARK INTER + INTRA:          -9.026
REMARK INTER:                  -8.960
REMARK INTRA:                  -0.066
REMARK UNBOUND:                -0.063
REMARK  Name = ZINC000018847046
REMARK  3 active torsions:
REMARK  status: ('A' for Active; 'I' for Inactive)
REMARK    1  A    between atoms: C_1  and  O_2
REMARK    2  A    between atoms: O_2  and  C_3
REMARK    3  A    between atoms: C_11  and  C_12
REMARK                            x       y       z     vdW  Elec       q    Type
REMARK                         _______ _______ _______ _____ _____    ______ ____
ROOT
ATOM      1  C   UNL     1       0.731   2.024 -22.692  0.00  0.00    +0.122 A 
ATOM      2  C   UNL     1       0.173   1.708 -21.562  0.00  0.00    +0.046 A 
ATOM      3  C   UNL     1      -1.091   1.941 -21.373  0.00  0.00    +0.014 A 
ATOM      4  C   UNL     1      -1.798   2.492 -22.316  0.00  0.00    +0.008 A 
ATOM      5  C   UNL     1      -1.240   2.807 -23.446  0.00  0.00    +0.051 A 
ATOM      6  N   UNL     1      -2.150   3.336 -24.210  0.00  0.00    -0.353 N 
ATOM      7  H   UNL     1      -2.014   3.670 -25.127  0.00  0.00    +0.166 HD
ATOM      8  C   UNL     1      -3.271   3.346 -23.551  0.00  0.00    +0.069 A 
ATOM      9  C   UNL     1      -4.461   3.763 -23.866  0.00  0.00    +0.062 A 
ATOM     10  N   UNL     1      -5.434   3.658 -23.010  0.00  0.00    -0.258 NA
ATOM     11  C   UNL     1      -5.217   3.137 -21.839  0.00  0.00    +0.112 A 
ATOM     12  C   UNL     1      -4.026   2.719 -21.525  0.00  0.00    +0.030 A 
ATOM     13  C   UNL     1      -4.679   4.285 -25.037  0.00  0.00    +0.068 C 
ATOM     14  C   UNL     1      -3.053   2.824 -22.381  0.00  0.00    +0.011 A 
ATOM     15  C   UNL     1       0.025   2.574 -23.635  0.00  0.00    +0.071 A 
ENDROOT
BRANCH   1  17
ATOM     16  C   UNL     1       2.537   0.711 -22.397  0.00  0.00    +0.277 C 
ATOM     17  O   UNL     1       1.996   1.790 -22.880  0.00  0.00    -0.495 OA
ENDBRANCH   1  17
TORSDOF 1
ENDMDL
MODEL 2
REMARK VINA RESULT:    -8.397      1.047      2.124
REMARK INTER + INTRA:          -8.951
REMARK INTER:                  -8.884
REMARK INTRA:                  -0.067
REMARK UNBOUND:                -0.063
REMARK  Name = ZINC000018847046
REMARK  3 active torsions:
REMARK  status: ('A' for Active; 'I' for Inactive)
REMARK    1  A    between atoms: C_1  and  O_2
REMARK    2  A    between atoms: O_2  and  C_3
REMARK    3  A    between atoms: C_11  and  C_12
REMARK                            x       y       z     vdW  Elec       q    Type
REMARK                         _______ _______ _______ _____ _____    ______ ____
ROOT
ATOM      1  C   UNL     1       0.502   1.717 -21.944  0.00  0.00    +0.122 A 
ATOM      2  C   UNL     1       0.700   2.298 -23.089  0.00  0.00    +0.046 A 
ATOM      3  C   UNL     1      -0.287   2.874 -23.706  0.00  0.00    +0.014 A 
ATOM      4  C   UNL     1      -1.475   2.869 -23.178  0.00  0.00    +0.008 A 
ATOM      5  C   UNL     1      -1.674   2.288 -22.033  0.00  0.00    +0.051 A 
ATOM      6  N   UNL     1      -2.931   2.422 -21.728  0.00  0.00    -0.353 N 
ATOM      7  H   UNL     1      -3.369   2.080 -20.914  0.00  0.00    +0.166 HD
ATOM      8  C   UNL     1      -3.509   3.086 -22.684  0.00  0.00    +0.069 A 
ATOM      9  C   UNL     1      -4.737   3.475 -22.855  0.00  0.00    +0.062 A 
ATOM     10  N   UNL     1      -5.065   4.140 -23.923  0.00  0.00    -0.258 NA
ATOM     11  C   UNL     1      -4.166   4.417 -24.819  0.00  0.00    +0.112 A 
ATOM     12  C   UNL     1      -2.937   4.028 -24.648  0.00  0.00    +0.030 A 
ATOM     13  C   UNL     1      -5.637   3.198 -21.959  0.00  0.00    +0.068 C 
ATOM     14  C   UNL     1      -2.609   3.363 -23.581  0.00  0.00    +0.011 A 
ATOM     15  C   UNL     1      -0.686   1.711 -21.415  0.00  0.00    +0.071 A 
ENDROOT
BRANCH   1  17
ATOM     16  C   UNL     1       2.577   0.846 -21.975  0.00  0.00    +0.277 C 
ATOM     17  O   UNL     1       1.490   1.140 -21.327  0.00  0.00    -0.495 OA
ENDBRANCH   1  17
TORSDOF 1
ENDMDL
MODEL 3
REMARK VINA RESULT:    -7.949      2.448      5.278
REMARK INTER + INTRA:          -8.477
REMARK INTER:                  -8.410
REMARK INTRA:                  -0.067
REMARK UNBOUND:                -0.063
REMARK  Name = ZINC000018847046
REMARK  3 active torsions:
REMARK  status: ('A' for Active; 'I' for Inactive)
REMARK    1  A    between atoms: C_1  and  O_2
REMARK    2  A    between atoms: O_2  and  C_3
REMARK    3  A    between atoms: C_11  and  C_12
REMARK                            x       y       z     vdW  Elec       q    Type
REMARK                         _______ _______ _______ _____ _____    ______ ____
ROOT
ATOM      1  C   UNL     1      -3.524   3.040 -22.859  0.00  0.00    +0.122 A 
ATOM      2  C   UNL     1      -3.187   2.610 -21.680  0.00  0.00    +0.046 A 
ATOM      3  C   UNL     1      -1.961   2.249 -21.445  0.00  0.00    +0.014 A 
ATOM      4  C   UNL     1      -1.071   2.318 -22.391  0.00  0.00    +0.008 A 
ATOM      5  C   UNL     1      -1.409   2.747 -23.570  0.00  0.00    +0.051 A 
ATOM      6  N   UNL     1      -0.351   2.719 -24.326  0.00  0.00    -0.353 N 
ATOM      7  H   UNL     1      -0.308   2.989 -25.272  0.00  0.00    +0.166 HD
ATOM      8  C   UNL     1       0.641   2.272 -23.613  0.00  0.00    +0.069 A 
ATOM      9  C   UNL     1       1.891   2.059 -23.898  0.00  0.00    +0.062 A 
ATOM     10  N   UNL     1       2.695   1.598 -22.988  0.00  0.00    -0.258 NA
ATOM     11  C   UNL     1       2.251   1.349 -21.792  0.00  0.00    +0.112 A 
ATOM     12  C   UNL     1       1.000   1.563 -21.507  0.00  0.00    +0.030 A 
ATOM     13  C   UNL     1       2.336   2.307 -25.094  0.00  0.00    +0.068 C 
ATOM     14  C   UNL     1       0.195   2.024 -22.417  0.00  0.00    +0.011 A 
ATOM     15  C   UNL     1      -2.635   3.109 -23.805  0.00  0.00    +0.071 A 
ENDROOT
BRANCH   1  17
ATOM     16  C   UNL     1      -5.640   3.331 -22.147  0.00  0.00    +0.277 C 
ATOM     17  O   UNL     1      -4.751   3.401 -23.092  0.00  0.00    -0.495 OA
ENDBRANCH   1  17
TORSDOF 1
ENDMDL
MODEL 4
REMARK VINA RESULT:    -7.890      2.530      5.563
REMARK INTER + INTRA:          -8.415
REMARK INTER:                  -8.345
REMARK INTRA:                  -0.070
REMARK UNBOUND:                -0.063
REMARK  Name = ZINC000018847046
REMARK  3 active torsions:
REMARK  status: ('A' for Active; 'I' for Inactive)
REMARK    1  A    between atoms: C_1  and  O_2
REMARK    2  A    between atoms: O_2  and  C_3
REMARK    3  A    between atoms: C_11  and  C_12
REMARK                            x       y       z     vdW  Elec       q    Type
REMARK                         _______ _______ _______ _____ _____    ______ ____
ROOT
ATOM      1  C   UNL     1      -4.371   3.582 -23.368  0.00  0.00    +0.122 A 
ATOM      2  C   UNL     1      -4.043   4.153 -24.489  0.00  0.00    +0.046 A 
ATOM      3  C   UNL     1      -2.814   4.106 -24.907  0.00  0.00    +0.014 A 
ATOM      4  C   UNL     1      -1.911   3.487 -24.205  0.00  0.00    +0.008 A 
ATOM      5  C   UNL     1      -2.239   2.916 -23.084  0.00  0.00    +0.051 A 
ATOM      6  N   UNL     1      -1.169   2.374 -22.582  0.00  0.00    -0.353 N 
ATOM      7  H   UNL     1      -1.117   1.873 -21.736  0.00  0.00    +0.166 HD
ATOM      8  C   UNL     1      -0.180   2.610 -23.392  0.00  0.00    +0.069 A 
ATOM      9  C   UNL     1       1.078   2.288 -23.346  0.00  0.00    +0.062 A 
ATOM     10  N   UNL     1       1.878   2.654 -24.304  0.00  0.00    -0.258 NA
ATOM     11  C   UNL     1       1.420   3.342 -25.307  0.00  0.00    +0.112 A 
ATOM     12  C   UNL     1       0.161   3.664 -25.352  0.00  0.00    +0.030 A 
ATOM     13  C   UNL     1       1.537   1.600 -22.343  0.00  0.00    +0.068 C 
ATOM     14  C   UNL     1      -0.639   3.298 -24.395  0.00  0.00    +0.011 A 
ATOM     15  C   UNL     1      -3.469   2.963 -22.665  0.00  0.00    +0.071 A 
ENDROOT
BRANCH   1  17
ATOM     16  C   UNL     1      -5.947   2.986 -21.875  0.00  0.00    +0.277 C 
ATOM     17  O   UNL     1      -5.601   3.629 -22.950  0.00  0.00    -0.495 OA
ENDBRANCH   1  17
TORSDOF 1
ENDMDL
MODEL 5
REMARK VINA RESULT:    -7.355      2.699      5.776
REMARK INTER + INTRA:          -7.848
REMARK INTER:                  -7.780
REMARK INTRA:                  -0.068
REMARK UNBOUND:                -0.063
REMARK  Name = ZINC000018847046
REMARK  3 active torsions:
REMARK  status: ('A' for Active; 'I' for Inactive)
REMARK    1  A    between atoms: C_1  and  O_2
REMARK    2  A    between atoms: O_2  and  C_3
REMARK    3  A    between atoms: C_11  and  C_12
REMARK                            x       y       z     vdW  Elec       q    Type
REMARK                         _______ _______ _______ _____ _____    ______ ____
ROOT
ATOM      1  C   UNL     1      -2.990   3.486 -23.325  0.00  0.00    +0.122 A 
ATOM      2  C   UNL     1      -2.457   4.476 -23.976  0.00  0.00    +0.046 A 
ATOM      3  C   UNL     1      -1.165   4.609 -24.014  0.00  0.00    +0.014 A 
ATOM      4  C   UNL     1      -0.405   3.750 -23.400  0.00  0.00    +0.008 A 
ATOM      5  C   UNL     1      -0.938   2.760 -22.749  0.00  0.00    +0.051 A 
ATOM      6  N   UNL     1       0.024   2.055 -22.232  0.00  0.00    -0.353 N 
ATOM      7  H   UNL     1      -0.083   1.243 -21.685  0.00  0.00    +0.166 HD
ATOM      8  C   UNL     1       1.152   2.610 -22.563  0.00  0.00    +0.069 A 
ATOM      9  C   UNL     1       2.386   2.297 -22.301  0.00  0.00    +0.062 A 
ATOM     10  N   UNL     1       3.355   3.032 -22.761  0.00  0.00    -0.258 NA
ATOM     11  C   UNL     1       3.091   4.079 -23.483  0.00  0.00    +0.112 A 
ATOM     12  C   UNL     1       1.856   4.393 -23.745  0.00  0.00    +0.030 A 
ATOM     13  C   UNL     1       2.651   1.249 -21.579  0.00  0.00    +0.068 C 
ATOM     14  C   UNL     1       0.887   3.658 -23.285  0.00  0.00    +0.011 A 
ATOM     15  C   UNL     1      -2.231   2.627 -22.711  0.00  0.00    +0.071 A 
ENDROOT
BRANCH   1  17
ATOM     16  C   UNL     1      -4.900   3.326 -22.144  0.00  0.00    +0.277 C 
ATOM     17  O   UNL     1      -4.283   3.354 -23.287  0.00  0.00    -0.495 OA
ENDBRANCH   1  17
TORSDOF 1
ENDMDL
MODEL 6
REMARK VINA RESULT:    -6.997      2.939      6.230
REMARK INTER + INTRA:          -7.469
REMARK INTER:                  -7.401
REMARK INTRA:                  -0.068
REMARK UNBOUND:                -0.063
REMARK  Name = ZINC000018847046
REMARK  3 active torsions:
REMARK  status: ('A' for Active; 'I' for Inactive)
REMARK    1  A    between atoms: C_1  and  O_2
REMARK    2  A    between atoms: O_2  and  C_3
REMARK    3  A    between atoms: C_11  and  C_12
REMARK                            x       y       z     vdW  Elec       q    Type
REMARK                         _______ _______ _______ _____ _____    ______ ____
ROOT
ATOM      1  C   UNL     1      -1.204   2.727 -22.687  0.00  0.00    +0.122 A 
ATOM      2  C   UNL     1      -1.076   1.849 -21.738  0.00  0.00    +0.046 A 
ATOM      3  C   UNL     1       0.105   1.434 -21.390  0.00  0.00    +0.014 A 
ATOM      4  C   UNL     1       1.160   1.898 -21.993  0.00  0.00    +0.008 A 
ATOM      5  C   UNL     1       1.032   2.777 -22.941  0.00  0.00    +0.051 A 
ATOM      6  N   UNL     1       2.221   3.075 -23.375  0.00  0.00    -0.353 N 
ATOM      7  H   UNL     1       2.432   3.716 -24.093  0.00  0.00    +0.166 HD
ATOM      8  C   UNL     1       3.084   2.381 -22.694  0.00  0.00    +0.069 A 
ATOM      9  C   UNL     1       4.381   2.318 -22.740  0.00  0.00    +0.062 A 
ATOM     10  N   UNL     1       5.022   1.526 -21.933  0.00  0.00    -0.258 NA
ATOM     11  C   UNL     1       4.367   0.798 -21.078  0.00  0.00    +0.112 A 
ATOM     12  C   UNL     1       3.069   0.862 -21.032  0.00  0.00    +0.030 A 
ATOM     13  C   UNL     1       5.037   3.045 -23.595  0.00  0.00    +0.068 C 
ATOM     14  C   UNL     1       2.428   1.653 -21.839  0.00  0.00    +0.011 A 
ATOM     15  C   UNL     1      -0.150   3.192 -23.289  0.00  0.00    +0.071 A 
ENDROOT
BRANCH   1  17
ATOM     16  C   UNL     1      -2.806   2.965 -24.251  0.00  0.00    +0.277 C 
ATOM     17  O   UNL     1      -2.386   3.142 -23.034  0.00  0.00    -0.495 OA
ENDBRANCH   1  17
TORSDOF 1
ENDMDL
MODEL 7
REMARK VINA RESULT:    -6.849      3.330      6.666
REMARK INTER + INTRA:          -7.313
REMARK INTER:                  -7.243
REMARK INTRA:                  -0.070
REMARK UNBOUND:                -0.063
REMARK  Name = ZINC000018847046
REMARK  3 active torsions:
REMARK  status: ('A' for Active; 'I' for Inactive)
REMARK    1  A    between atoms: C_1  and  O_2
REMARK    2  A    between atoms: O_2  and  C_3
REMARK    3  A    between atoms: C_11  and  C_12
REMARK                            x       y       z     vdW  Elec       q    Type
REMARK                         _______ _______ _______ _____ _____    ______ ____
ROOT
ATOM      1  C   UNL     1      -0.821   3.793 -23.431  0.00  0.00    +0.122 A 
ATOM      2  C   UNL     1      -0.164   4.862 -23.771  0.00  0.00    +0.046 A 
ATOM      3  C   UNL     1       1.131   4.891 -23.668  0.00  0.00    +0.014 A 
ATOM      4  C   UNL     1       1.770   3.848 -23.224  0.00  0.00    +0.008 A 
ATOM      5  C   UNL     1       1.114   2.780 -22.884  0.00  0.00    +0.051 A 
ATOM      6  N   UNL     1       1.974   1.893 -22.479  0.00  0.00    -0.353 N 
ATOM      7  H   UNL     1       1.762   0.985 -22.160  0.00  0.00    +0.166 HD
ATOM      8  C   UNL     1       3.161   2.413 -22.568  0.00  0.00    +0.069 A 
ATOM      9  C   UNL     1       4.341   1.943 -22.289  0.00  0.00    +0.062 A 
ATOM     10  N   UNL     1       5.394   2.683 -22.471  0.00  0.00    -0.258 NA
ATOM     11  C   UNL     1       5.270   3.892 -22.932  0.00  0.00    +0.112 A 
ATOM     12  C   UNL     1       4.089   4.362 -23.211  0.00  0.00    +0.030 A 
ATOM     13  C   UNL     1       4.466   0.734 -21.828  0.00  0.00    +0.068 C 
ATOM     14  C   UNL     1       3.036   3.622 -23.029  0.00  0.00    +0.011 A 
ATOM     15  C   UNL     1      -0.182   2.751 -22.988  0.00  0.00    +0.071 A 
ENDROOT
BRANCH   1  17
ATOM     16  C   UNL     1      -2.795   2.823 -22.952  0.00  0.00    +0.277 C 
ATOM     17  O   UNL     1      -2.116   3.766 -23.535  0.00  0.00    -0.495 OA
ENDBRANCH   1  17
TORSDOF 1
ENDMDL
MODEL 8
REMARK VINA RESULT:    -6.161      1.514      1.987
REMARK INTER + INTRA:          -6.584
REMARK INTER:                  -6.521
REMARK INTRA:                  -0.063
REMARK UNBOUND:                -0.063
REMARK  Name = ZINC000018847046
REMARK  3 active torsions:
REMARK  status: ('A' for Active; 'I' for Inactive)
REMARK    1  A    between atoms: C_1  and  O_2
REMARK    2  A    between atoms: O_2  and  C_3
REMARK    3  A    between atoms: C_11  and  C_12
REMARK                            x       y       z     vdW  Elec       q    Type
REMARK                         _______ _______ _______ _____ _____    ______ ____
ROOT
ATOM      1  C   UNL     1       0.149   3.302 -24.410  0.00  0.00    +0.122 A 
ATOM      2  C   UNL     1       0.299   2.705 -23.266  0.00  0.00    +0.046 A 
ATOM      3  C   UNL     1      -0.730   2.493 -22.502  0.00  0.00    +0.014 A 
ATOM      4  C   UNL     1      -1.912   2.880 -22.882  0.00  0.00    +0.008 A 
ATOM      5  C   UNL     1      -2.062   3.478 -24.026  0.00  0.00    +0.051 A 
ATOM      6  N   UNL     1      -3.324   3.759 -24.169  0.00  0.00    -0.353 N 
ATOM      7  H   UNL     1      -3.731   4.213 -24.943  0.00  0.00    +0.166 HD
ATOM      8  C   UNL     1      -3.953   3.335 -23.114  0.00  0.00    +0.069 A 
ATOM      9  C   UNL     1      -5.207   3.373 -22.774  0.00  0.00    +0.062 A 
ATOM     10  N   UNL     1      -5.588   2.869 -21.638  0.00  0.00    -0.258 NA
ATOM     11  C   UNL     1      -4.716   2.325 -20.842  0.00  0.00    +0.112 A 
ATOM     12  C   UNL     1      -3.461   2.287 -21.182  0.00  0.00    +0.030 A 
ATOM     13  C   UNL     1      -6.080   3.917 -23.570  0.00  0.00    +0.068 C 
ATOM     14  C   UNL     1      -3.080   2.792 -22.318  0.00  0.00    +0.011 A 
ATOM     15  C   UNL     1      -1.032   3.689 -24.791  0.00  0.00    +0.071 A 
ENDROOT
BRANCH   1  17
ATOM     16  C   UNL     1       1.706   4.699 -25.242  0.00  0.00    +0.277 C 
ATOM     17  O   UNL     1       1.180   3.513 -25.174  0.00  0.00    -0.495 OA
ENDBRANCH   1  17
TORSDOF 1
ENDMDL
