MODEL 1
REMARK VINA RESULT:   -10.774      0.000      0.000
REMARK INTER + INTRA:         -11.522
REMARK INTER:                 -11.381
REMARK INTRA:                  -0.140
REMARK UNBOUND:                -0.118
REMARK  Name = COc1ccc2c(c1)[C@]13CCN[C@@H](C2)[C@H]1CCC(=O)C3                      ZINC000100392454
REMARK  2 active torsions:
REMARK  status: ('A' for Active; 'I' for Inactive)
REMARK    1  A    between atoms: C_1  and  O_2
REMARK    2  A    between atoms: O_2  and  C_3
REMARK                            x       y       z     vdW  Elec       q    Type
REMARK                         _______ _______ _______ _____ _____    ______ ____
ROOT
ATOM      1  C   UNL     1      -4.149   3.972 -25.002  0.00  0.00    +0.120 A 
ATOM      2  C   UNL     1      -5.235   4.091 -24.364  0.00  0.00    +0.046 A 
ATOM      3  C   UNL     1      -5.281   3.717 -23.157  0.00  0.00    +0.008 A 
ATOM      4  C   UNL     1      -4.077   3.160 -22.541  0.00  0.00    -0.038 A 
ATOM      5  C   UNL     1      -3.200   3.086 -23.126  0.00  0.00    -0.033 A 
ATOM      6  C   UNL     1      -2.332   2.763 -22.927  0.00  0.00    +0.015 C 
ATOM      7  C   UNL     1      -3.824   3.378 -23.455  0.00  0.00    +0.063 C 
ATOM      8  C   UNL     1      -4.994   3.423 -22.510  0.00  0.00    +0.130 C 
ATOM      9  N   UNL     1      -4.837   3.017 -21.390  0.00  0.00    +0.230 N 
ATOM     10  H   UNL     1      -4.933   3.865 -20.832  0.00  0.00    +0.202 HD
ATOM     11  H   UNL     1      -5.517   2.267 -21.258  0.00  0.00    +0.202 HD
ATOM     12  C   UNL     1      -3.447   2.448 -20.911  0.00  0.00    +0.071 C 
ATOM     13  C   UNL     1      -1.286   2.685 -23.658  0.00  0.00    +0.086 C 
ATOM     14  C   UNL     1      -0.186   2.198 -23.161  0.00  0.00    +0.134 C 
ATOM     15  O   UNL     1       0.872   2.119 -23.900  0.00  0.00    -0.297 OA
ATOM     16  C   UNL     1      -0.142   1.780 -21.902  0.00  0.00    +0.075 C 
ATOM     17  C   UNL     1      -1.196   1.844 -21.122  0.00  0.00    +0.017 C 
ATOM     18  C   UNL     1      -2.287   2.314 -21.572  0.00  0.00    +0.049 C 
ATOM     19  C   UNL     1      -4.160   2.818 -21.400  0.00  0.00    +0.090 C 
ATOM     20  C   UNL     1      -3.121   3.471 -24.398  0.00  0.00    +0.050 A 
ENDROOT
BRANCH   1  22
ATOM     21  C   UNL     1      -3.306   3.647 -27.111  0.00  0.00    +0.277 C 
ATOM     22  O   UNL     1      -3.989   4.332 -26.269  0.00  0.00    -0.495 OA
ENDBRANCH   1  22
TORSDOF 1
ENDMDL
MODEL 2
REMARK VINA RESULT:   -10.543      0.875      3.919
REMARK INTER + INTRA:         -11.277
REMARK INTER:                 -11.141
REMARK INTRA:                  -0.136
REMARK UNBOUND:                -0.118
REMARK  Name = COc1ccc2c(c1)[C@]13CCN[C@@H](C2)[C@H]1CCC(=O)C3                      ZINC000100392454
REMARK  2 active torsions:
REMARK  status: ('A' for Active; 'I' for Inactive)
REMARK    1  A    between atoms: C_1  and  O_2
REMARK    2  A    between atoms: O_2  and  C_3
REMARK                            x       y       z     vdW  Elec       q    Type
REMARK                         _______ _______ _______ _____ _____    ______ ____
ROOT
ATOM      1  C   UNL     1      -0.324   2.141 -22.871  0.00  0.00    +0.120 A 
ATOM      2  C   UNL     1      -0.524   2.102 -21.621  0.00  0.00    +0.046 A 
ATOM      3  C   UNL     1      -1.658   2.436 -21.172  0.00  0.00    +0.008 A 
ATOM      4  C   UNL     1      -2.698   2.855 -22.110  0.00  0.00    -0.038 A 
ATOM      5  C   UNL     1      -2.470   2.867 -23.142  0.00  0.00    -0.033 A 
ATOM      6  C   UNL     1      -2.986   3.100 -23.902  0.00  0.00    +0.015 C 
ATOM      7  C   UNL     1      -1.921   2.647 -22.659  0.00  0.00    +0.063 C 
ATOM      8  C   UNL     1      -2.382   2.678 -21.227  0.00  0.00    +0.130 C 
ATOM      9  N   UNL     1      -3.509   3.028 -20.999  0.00  0.00    +0.230 N 
ATOM     10  H   UNL     1      -3.938   2.173 -20.646  0.00  0.00    +0.202 HD
ATOM     11  H   UNL     1      -3.440   3.833 -20.376  0.00  0.00    +0.202 HD
ATOM     12  C   UNL     1      -4.489   3.446 -22.162  0.00  0.00    +0.071 C 
ATOM     13  C   UNL     1      -2.683   3.104 -25.144  0.00  0.00    +0.086 C 
ATOM     14  C   UNL     1      -3.570   3.468 -26.024  0.00  0.00    +0.134 C 
ATOM     15  O   UNL     1      -3.264   3.473 -27.280  0.00  0.00    -0.297 OA
ATOM     16  C   UNL     1      -4.787   3.835 -25.642  0.00  0.00    +0.075 C 
ATOM     17  C   UNL     1      -5.134   3.843 -24.376  0.00  0.00    +0.017 C 
ATOM     18  C   UNL     1      -4.295   3.494 -23.489  0.00  0.00    +0.049 C 
ATOM     19  C   UNL     1      -3.755   3.163 -21.647  0.00  0.00    +0.090 C 
ATOM     20  C   UNL     1      -1.286   2.521 -23.646  0.00  0.00    +0.050 A 
ENDROOT
BRANCH   1  22
ATOM     21  C   UNL     1       1.397   2.543 -24.333  0.00  0.00    +0.277 C 
ATOM     22  O   UNL     1       0.825   1.813 -23.449  0.00  0.00    -0.495 OA
ENDBRANCH   1  22
TORSDOF 1
ENDMDL
MODEL 3
REMARK VINA RESULT:   -10.138      2.417      4.453
REMARK INTER + INTRA:         -10.849
REMARK INTER:                 -10.731
REMARK INTRA:                  -0.117
REMARK UNBOUND:                -0.118
REMARK  Name = COc1ccc2c(c1)[C@]13CCN[C@@H](C2)[C@H]1CCC(=O)C3                      ZINC000100392454
REMARK  2 active torsions:
REMARK  status: ('A' for Active; 'I' for Inactive)
REMARK    1  A    between atoms: C_1  and  O_2
REMARK    2  A    between atoms: O_2  and  C_3
REMARK                            x       y       z     vdW  Elec       q    Type
REMARK                         _______ _______ _______ _____ _____    ______ ____
ROOT
ATOM      1  C   UNL     1       0.566   3.989 -23.619  0.00  0.00    +0.120 A 
ATOM      2  C   UNL     1       0.535   3.912 -24.882  0.00  0.00    +0.046 A 
ATOM      3  C   UNL     1      -0.577   3.737 -25.458  0.00  0.00    +0.008 A 
ATOM      4  C   UNL     1      -1.788   3.631 -24.646  0.00  0.00    -0.038 A 
ATOM      5  C   UNL     1      -1.698   3.703 -23.596  0.00  0.00    -0.033 A 
ATOM      6  C   UNL     1      -2.341   3.661 -22.900  0.00  0.00    +0.015 C 
ATOM      7  C   UNL     1      -1.061   3.760 -24.012  0.00  0.00    +0.063 C 
ATOM      8  C   UNL     1      -1.336   3.639 -25.486  0.00  0.00    +0.130 C 
ATOM      9  N   UNL     1      -2.472   3.474 -25.842  0.00  0.00    +0.230 N 
ATOM     10  H   UNL     1      -2.678   4.344 -26.334  0.00  0.00    +0.202 HD
ATOM     11  H   UNL     1      -2.485   2.601 -26.369  0.00  0.00    +0.202 HD
ATOM     12  C   UNL     1      -3.652   3.385 -24.800  0.00  0.00    +0.071 C 
ATOM     13  C   UNL     1      -2.202   3.752 -21.633  0.00  0.00    +0.086 C 
ATOM     14  C   UNL     1      -3.247   3.664 -20.862  0.00  0.00    +0.134 C 
ATOM     15  O   UNL     1      -3.107   3.756 -19.579  0.00  0.00    -0.297 OA
ATOM     16  C   UNL     1      -4.454   3.481 -21.380  0.00  0.00    +0.075 C 
ATOM     17  C   UNL     1      -4.635   3.383 -22.677  0.00  0.00    +0.017 C 
ATOM     18  C   UNL     1      -3.639   3.464 -23.461  0.00  0.00    +0.049 C 
ATOM     19  C   UNL     1      -2.819   3.466 -25.227  0.00  0.00    +0.090 C 
ATOM     20  C   UNL     1      -0.542   3.886 -22.960  0.00  0.00    +0.050 A 
ENDROOT
BRANCH   1  22
ATOM     21  C   UNL     1       2.588   5.007 -23.246  0.00  0.00    +0.277 C 
ATOM     22  O   UNL     1       1.674   4.171 -22.913  0.00  0.00    -0.495 OA
ENDBRANCH   1  22
TORSDOF 1
ENDMDL
MODEL 4
REMARK VINA RESULT:   -10.063      1.999      3.484
REMARK INTER + INTRA:         -10.769
REMARK INTER:                 -10.622
REMARK INTRA:                  -0.147
REMARK UNBOUND:                -0.118
REMARK  Name = COc1ccc2c(c1)[C@]13CCN[C@@H](C2)[C@H]1CCC(=O)C3                      ZINC000100392454
REMARK  2 active torsions:
REMARK  status: ('A' for Active; 'I' for Inactive)
REMARK    1  A    between atoms: C_1  and  O_2
REMARK    2  A    between atoms: O_2  and  C_3
REMARK                            x       y       z     vdW  Elec       q    Type
REMARK                         _______ _______ _______ _____ _____    ______ ____
ROOT
ATOM      1  C   UNL     1      -4.258   3.514 -22.032  0.00  0.00    +0.120 A 
ATOM      2  C   UNL     1      -5.296   3.636 -22.746  0.00  0.00    +0.046 A 
ATOM      3  C   UNL     1      -5.170   3.716 -24.001  0.00  0.00    +0.008 A 
ATOM      4  C   UNL     1      -3.830   3.667 -24.585  0.00  0.00    -0.038 A 
ATOM      5  C   UNL     1      -3.002   3.564 -23.936  0.00  0.00    -0.033 A 
ATOM      6  C   UNL     1      -2.070   3.512 -24.101  0.00  0.00    +0.015 C 
ATOM      7  C   UNL     1      -3.698   3.589 -23.623  0.00  0.00    +0.063 C 
ATOM      8  C   UNL     1      -4.778   3.737 -24.660  0.00  0.00    +0.130 C 
ATOM      9  N   UNL     1      -4.455   3.797 -25.815  0.00  0.00    +0.230 N 
ATOM     10  H   UNL     1      -4.834   2.930 -26.196  0.00  0.00    +0.202 HD
ATOM     11  H   UNL     1      -4.814   4.683 -26.170  0.00  0.00    +0.202 HD
ATOM     12  C   UNL     1      -2.940   3.724 -26.247  0.00  0.00    +0.071 C 
ATOM     13  C   UNL     1      -1.087   3.388 -23.294  0.00  0.00    +0.086 C 
ATOM     14  C   UNL     1       0.127   3.338 -23.758  0.00  0.00    +0.134 C 
ATOM     15  O   UNL     1       1.122   3.212 -22.941  0.00  0.00    -0.297 OA
ATOM     16  C   UNL     1       0.354   3.415 -25.063  0.00  0.00    +0.075 C 
ATOM     17  C   UNL     1      -0.630   3.543 -25.923  0.00  0.00    +0.017 C 
ATOM     18  C   UNL     1      -1.829   3.596 -25.506  0.00  0.00    +0.049 C 
ATOM     19  C   UNL     1      -3.752   3.746 -25.774  0.00  0.00    +0.090 C 
ATOM     20  C   UNL     1      -3.103   3.477 -22.611  0.00  0.00    +0.050 A 
ENDROOT
BRANCH   1  22
ATOM     21  C   UNL     1      -3.246   3.649 -19.977  0.00  0.00    +0.277 C 
ATOM     22  O   UNL     1      -4.274   3.421 -20.708  0.00  0.00    -0.495 OA
ENDBRANCH   1  22
TORSDOF 1
ENDMDL
MODEL 5
REMARK VINA RESULT:    -9.881      2.312      5.182
REMARK INTER + INTRA:         -10.576
REMARK INTER:                 -10.458
REMARK INTRA:                  -0.118
REMARK UNBOUND:                -0.118
REMARK  Name = COc1ccc2c(c1)[C@]13CCN[C@@H](C2)[C@H]1CCC(=O)C3                      ZINC000100392454
REMARK  2 active torsions:
REMARK  status: ('A' for Active; 'I' for Inactive)
REMARK    1  A    between atoms: C_1  and  O_2
REMARK    2  A    between atoms: O_2  and  C_3
REMARK                            x       y       z     vdW  Elec       q    Type
REMARK                         _______ _______ _______ _____ _____    ______ ____
ROOT
ATOM      1  C   UNL     1       0.871   1.907 -22.251  0.00  0.00    +0.120 A 
ATOM      2  C   UNL     1       1.522   2.188 -23.300  0.00  0.00    +0.046 A 
ATOM      3  C   UNL     1       0.915   2.720 -24.273  0.00  0.00    +0.008 A 
ATOM      4  C   UNL     1      -0.517   2.993 -24.153  0.00  0.00    -0.038 A 
ATOM      5  C   UNL     1      -1.005   2.736 -23.252  0.00  0.00    -0.033 A 
ATOM      6  C   UNL     1      -1.906   2.824 -22.972  0.00  0.00    +0.015 C 
ATOM      7  C   UNL     1      -0.257   2.590 -23.306  0.00  0.00    +0.063 C 
ATOM      8  C   UNL     1       0.305   3.006 -24.638  0.00  0.00    +0.130 C 
ATOM      9  N   UNL     1      -0.440   3.500 -25.441  0.00  0.00    +0.230 N 
ATOM     10  H   UNL     1      -0.093   4.457 -25.505  0.00  0.00    +0.202 HD
ATOM     11  H   UNL     1      -0.399   2.910 -26.273  0.00  0.00    +0.202 HD
ATOM     12  C   UNL     1      -1.969   3.712 -25.120  0.00  0.00    +0.071 C 
ATOM     13  C   UNL     1      -2.470   2.503 -21.871  0.00  0.00    +0.086 C 
ATOM     14  C   UNL     1      -3.742   2.722 -21.709  0.00  0.00    +0.134 C 
ATOM     15  O   UNL     1      -4.313   2.398 -20.595  0.00  0.00    -0.297 OA
ATOM     16  C   UNL     1      -4.459   3.278 -22.678  0.00  0.00    +0.075 C 
ATOM     17  C   UNL     1      -3.914   3.621 -23.822  0.00  0.00    +0.017 C 
ATOM     18  C   UNL     1      -2.675   3.421 -24.016  0.00  0.00    +0.049 C 
ATOM     19  C   UNL     1      -1.054   3.496 -25.094  0.00  0.00    +0.090 C 
ATOM     20  C   UNL     1      -0.393   2.175 -22.210  0.00  0.00    +0.050 A 
ENDROOT
BRANCH   1  22
ATOM     21  C   UNL     1       2.665   1.361 -20.929  0.00  0.00    +0.277 C 
ATOM     22  O   UNL     1       1.406   1.349 -21.173  0.00  0.00    -0.495 OA
ENDBRANCH   1  22
TORSDOF 1
ENDMDL
MODEL 6
REMARK VINA RESULT:    -9.721      2.124      3.596
REMARK INTER + INTRA:         -10.407
REMARK INTER:                 -10.262
REMARK INTRA:                  -0.145
REMARK UNBOUND:                -0.118
REMARK  Name = COc1ccc2c(c1)[C@]13CCN[C@@H](C2)[C@H]1CCC(=O)C3                      ZINC000100392454
REMARK  2 active torsions:
REMARK  status: ('A' for Active; 'I' for Inactive)
REMARK    1  A    between atoms: C_1  and  O_2
REMARK    2  A    between atoms: O_2  and  C_3
REMARK                            x       y       z     vdW  Elec       q    Type
REMARK                         _______ _______ _______ _____ _____    ______ ____
ROOT
ATOM      1  C   UNL     1      -3.614   3.310 -22.891  0.00  0.00    +0.120 A 
ATOM      2  C   UNL     1      -3.849   3.756 -24.052  0.00  0.00    +0.046 A 
ATOM      3  C   UNL     1      -2.908   3.796 -24.895  0.00  0.00    +0.008 A 
ATOM      4  C   UNL     1      -1.581   3.324 -24.501  0.00  0.00    -0.038 A 
ATOM      5  C   UNL     1      -1.447   2.962 -23.517  0.00  0.00    -0.033 A 
ATOM      6  C   UNL     1      -0.688   2.617 -23.067  0.00  0.00    +0.015 C 
ATOM      7  C   UNL     1      -2.143   3.206 -23.715  0.00  0.00    +0.063 C 
ATOM      8  C   UNL     1      -2.189   3.692 -25.138  0.00  0.00    +0.130 C 
ATOM      9  N   UNL     1      -1.178   3.649 -25.787  0.00  0.00    +0.230 N 
ATOM     10  H   UNL     1      -1.400   2.949 -26.495  0.00  0.00    +0.202 HD
ATOM     11  H   UNL     1      -0.989   4.604 -26.090  0.00  0.00    +0.202 HD
ATOM     12  C   UNL     1       0.167   3.099 -25.175  0.00  0.00    +0.071 C 
ATOM     13  C   UNL     1      -0.555   2.185 -21.871  0.00  0.00    +0.086 C 
ATOM     14  C   UNL     1       0.604   1.753 -21.466  0.00  0.00    +0.134 C 
ATOM     15  O   UNL     1       0.739   1.316 -20.257  0.00  0.00    -0.297 OA
ATOM     16  C   UNL     1       1.648   1.757 -22.285  0.00  0.00    +0.075 C 
ATOM     17  C   UNL     1       1.550   2.193 -23.519  0.00  0.00    +0.017 C 
ATOM     18  C   UNL     1       0.435   2.623 -23.949  0.00  0.00    +0.049 C 
ATOM     19  C   UNL     1      -0.719   3.377 -25.325  0.00  0.00    +0.090 C 
ATOM     20  C   UNL     1      -2.418   2.908 -22.607  0.00  0.00    +0.050 A 
ENDROOT
BRANCH   1  22
ATOM     21  C   UNL     1      -4.468   2.358 -20.986  0.00  0.00    +0.277 C 
ATOM     22  O   UNL     1      -4.525   3.224 -21.930  0.00  0.00    -0.495 OA
ENDBRANCH   1  22
TORSDOF 1
ENDMDL
MODEL 7
REMARK VINA RESULT:    -9.493      3.057      4.898
REMARK INTER + INTRA:         -10.166
REMARK INTER:                 -10.048
REMARK INTRA:                  -0.118
REMARK UNBOUND:                -0.118
REMARK  Name = COc1ccc2c(c1)[C@]13CCN[C@@H](C2)[C@H]1CCC(=O)C3                      ZINC000100392454
REMARK  2 active torsions:
REMARK  status: ('A' for Active; 'I' for Inactive)
REMARK    1  A    between atoms: C_1  and  O_2
REMARK    2  A    between atoms: O_2  and  C_3
REMARK                            x       y       z     vdW  Elec       q    Type
REMARK                         _______ _______ _______ _____ _____    ______ ____
ROOT
ATOM      1  C   UNL     1      -1.382   3.089 -22.023  0.00  0.00    +0.120 A 
ATOM      2  C   UNL     1      -1.667   4.236 -22.476  0.00  0.00    +0.046 A 
ATOM      3  C   UNL     1      -0.763   4.910 -23.050  0.00  0.00    +0.008 A 
ATOM      4  C   UNL     1       0.578   4.340 -23.170  0.00  0.00    -0.038 A 
ATOM      5  C   UNL     1       0.754   3.378 -22.772  0.00  0.00    -0.033 A 
ATOM      6  C   UNL     1       1.532   2.837 -22.743  0.00  0.00    +0.015 C 
ATOM      7  C   UNL     1       0.051   3.667 -22.704  0.00  0.00    +0.063 C 
ATOM      8  C   UNL     1      -0.056   5.039 -23.313  0.00  0.00    +0.130 C 
ATOM      9  N   UNL     1       0.925   5.516 -23.818  0.00  0.00    +0.230 N 
ATOM     10  H   UNL     1       0.670   5.552 -24.805  0.00  0.00    +0.202 HD
ATOM     11  H   UNL     1       1.103   6.393 -23.329  0.00  0.00    +0.202 HD
ATOM     12  C   UNL     1       2.294   4.735 -23.848  0.00  0.00    +0.071 C 
ATOM     13  C   UNL     1       1.716   1.671 -22.252  0.00  0.00    +0.086 C 
ATOM     14  C   UNL     1       2.891   1.116 -22.331  0.00  0.00    +0.134 C 
ATOM     15  O   UNL     1       3.078  -0.063 -21.835  0.00  0.00    -0.297 OA
ATOM     16  C   UNL     1       3.898   1.750 -22.917  0.00  0.00    +0.075 C 
ATOM     17  C   UNL     1       3.746   2.948 -23.432  0.00  0.00    +0.017 C 
ATOM     18  C   UNL     1       2.615   3.521 -23.374  0.00  0.00    +0.049 C 
ATOM     19  C   UNL     1       1.403   5.007 -23.718  0.00  0.00    +0.090 C 
ATOM     20  C   UNL     1      -0.175   2.645 -22.162  0.00  0.00    +0.050 A 
ENDROOT
BRANCH   1  22
ATOM     21  C   UNL     1      -3.513   2.516 -21.397  0.00  0.00    +0.277 C 
ATOM     22  O   UNL     1      -2.250   2.299 -21.404  0.00  0.00    -0.495 OA
ENDBRANCH   1  22
TORSDOF 1
ENDMDL
MODEL 8
REMARK VINA RESULT:    -9.437      1.963      3.517
REMARK INTER + INTRA:         -10.106
REMARK INTER:                  -9.988
REMARK INTRA:                  -0.118
REMARK UNBOUND:                -0.118
REMARK  Name = COc1ccc2c(c1)[C@]13CCN[C@@H](C2)[C@H]1CCC(=O)C3                      ZINC000100392454
REMARK  2 active torsions:
REMARK  status: ('A' for Active; 'I' for Inactive)
REMARK    1  A    between atoms: C_1  and  O_2
REMARK    2  A    between atoms: O_2  and  C_3
REMARK                            x       y       z     vdW  Elec       q    Type
REMARK                         _______ _______ _______ _____ _____    ______ ____
ROOT
ATOM      1  C   UNL     1      -2.944   3.247 -22.948  0.00  0.00    +0.120 A 
ATOM      2  C   UNL     1      -3.104   2.576 -21.887  0.00  0.00    +0.046 A 
ATOM      3  C   UNL     1      -2.111   1.972 -21.388  0.00  0.00    +0.008 A 
ATOM      4  C   UNL     1      -0.813   2.070 -22.055  0.00  0.00    -0.038 A 
ATOM      5  C   UNL     1      -0.743   2.645 -22.938  0.00  0.00    -0.033 A 
ATOM      6  C   UNL     1      -0.014   2.836 -23.514  0.00  0.00    +0.015 C 
ATOM      7  C   UNL     1      -1.424   2.599 -22.597  0.00  0.00    +0.063 C 
ATOM      8  C   UNL     1      -1.378   1.751 -21.355  0.00  0.00    +0.130 C 
ATOM      9  N   UNL     1      -0.329   1.257 -21.042  0.00  0.00    +0.230 N 
ATOM     10  H   UNL     1      -0.106   1.742 -20.173  0.00  0.00    +0.202 HD
ATOM     11  H   UNL     1      -0.482   0.249 -21.011  0.00  0.00    +0.202 HD
ATOM     12  C   UNL     1       0.974   1.483 -21.901  0.00  0.00    +0.071 C 
ATOM     13  C   UNL     1       0.042   3.538 -24.580  0.00  0.00    +0.086 C 
ATOM     14  C   UNL     1       1.171   3.660 -25.215  0.00  0.00    +0.134 C 
ATOM     15  O   UNL     1       1.228   4.370 -26.293  0.00  0.00    -0.297 OA
ATOM     16  C   UNL     1       2.266   3.060 -24.764  0.00  0.00    +0.075 C 
ATOM     17  C   UNL     1       2.247   2.331 -23.672  0.00  0.00    +0.017 C 
ATOM     18  C   UNL     1       1.162   2.189 -23.026  0.00  0.00    +0.049 C 
ATOM     19  C   UNL     1       0.100   1.485 -21.554  0.00  0.00    +0.090 C 
ATOM     20  C   UNL     1      -1.769   3.292 -23.487  0.00  0.00    +0.050 A 
ENDROOT
BRANCH   1  22
ATOM     21  C   UNL     1      -5.159   3.711 -23.326  0.00  0.00    +0.277 C 
ATOM     22  O   UNL     1      -3.914   3.918 -23.555  0.00  0.00    -0.495 OA
ENDBRANCH   1  22
TORSDOF 1
ENDMDL
MODEL 9
REMARK VINA RESULT:    -8.937      1.615      2.591
REMARK INTER + INTRA:          -9.577
REMARK INTER:                  -9.459
REMARK INTRA:                  -0.118
REMARK UNBOUND:                -0.118
REMARK  Name = COc1ccc2c(c1)[C@]13CCN[C@@H](C2)[C@H]1CCC(=O)C3                      ZINC000100392454
REMARK  2 active torsions:
REMARK  status: ('A' for Active; 'I' for Inactive)
REMARK    1  A    between atoms: C_1  and  O_2
REMARK    2  A    between atoms: O_2  and  C_3
REMARK                            x       y       z     vdW  Elec       q    Type
REMARK                         _______ _______ _______ _____ _____    ______ ____
ROOT
ATOM      1  C   UNL     1      -2.059   3.149 -24.949  0.00  0.00    +0.120 A 
ATOM      2  C   UNL     1      -3.034   3.116 -24.143  0.00  0.00    +0.046 A 
ATOM      3  C   UNL     1      -2.827   2.770 -22.944  0.00  0.00    +0.008 A 
ATOM      4  C   UNL     1      -1.468   2.421 -22.531  0.00  0.00    -0.038 A 
ATOM      5  C   UNL     1      -0.696   2.468 -23.251  0.00  0.00    -0.033 A 
ATOM      6  C   UNL     1       0.233   2.288 -23.195  0.00  0.00    +0.015 C 
ATOM      7  C   UNL     1      -1.402   2.652 -23.475  0.00  0.00    +0.063 C 
ATOM      8  C   UNL     1      -2.398   2.541 -22.353  0.00  0.00    +0.130 C 
ATOM      9  N   UNL     1      -2.003   2.192 -21.273  0.00  0.00    +0.230 N 
ATOM     10  H   UNL     1      -2.139   3.030 -20.707  0.00  0.00    +0.202 HD
ATOM     11  H   UNL     1      -2.527   1.351 -21.032  0.00  0.00    +0.202 HD
ATOM     12  C   UNL     1      -0.482   1.857 -21.025  0.00  0.00    +0.071 C 
ATOM     13  C   UNL     1       1.148   2.354 -24.085  0.00  0.00    +0.086 C 
ATOM     14  C   UNL     1       2.375   2.054 -23.773  0.00  0.00    +0.134 C 
ATOM     15  O   UNL     1       3.301   2.121 -24.673  0.00  0.00    -0.297 OA
ATOM     16  C   UNL     1       2.685   1.681 -22.538  0.00  0.00    +0.075 C 
ATOM     17  C   UNL     1       1.772   1.601 -21.597  0.00  0.00    +0.017 C 
ATOM     18  C   UNL     1       0.564   1.886 -21.865  0.00  0.00    +0.049 C 
ATOM     19  C   UNL     1      -1.314   2.100 -21.392  0.00  0.00    +0.090 C 
ATOM     20  C   UNL     1      -0.882   2.828 -24.519  0.00  0.00    +0.050 A 
ENDROOT
BRANCH   1  22
ATOM     21  C   UNL     1      -3.287   3.626 -26.827  0.00  0.00    +0.277 C 
ATOM     22  O   UNL     1      -2.162   3.497 -26.225  0.00  0.00    -0.495 OA
ENDBRANCH   1  22
TORSDOF 1
ENDMDL
