MODEL 1
REMARK VINA RESULT:    -8.845      0.000      0.000
REMARK INTER + INTRA:         -10.937
REMARK INTER:                 -10.863
REMARK INTRA:                  -0.074
REMARK UNBOUND:                -0.282
REMARK  Name = ZINC000019908782
REMARK  7 active torsions:
REMARK  status: ('A' for Active; 'I' for Inactive)
REMARK    1  A    between atoms: C_1  and  O_2
REMARK    2  A    between atoms: O_2  and  C_3
REMARK    3  A    between atoms: C_8  and  O_9
REMARK    4  A    between atoms: C_16  and  O_17
REMARK    5  A    between atoms: O_17  and  C_18
REMARK    6  A    between atoms: C_19  and  O_20
REMARK    7  A    between atoms: O_20  and  C_21
REMARK                            x       y       z     vdW  Elec       q    Type
REMARK                         _______ _______ _______ _____ _____    ______ ____
ROOT
ATOM      1  C   UNL     1      -3.659   4.031 -25.153  0.00  0.00    +0.162 A 
ATOM      2  C   UNL     1      -2.543   3.607 -24.638  0.00  0.00    +0.058 A 
ATOM      3  C   UNL     1      -2.519   3.153 -23.420  0.00  0.00    +0.008 A 
ATOM      4  C   UNL     1      -3.611   3.124 -22.716  0.00  0.00    -0.030 A 
ATOM      5  C   UNL     1      -3.588   2.671 -21.498  0.00  0.00    +0.086 C 
ATOM      6  C   UNL     1      -2.472   2.246 -20.984  0.00  0.00    +0.137 C 
ATOM      7  N   UNL     1      -1.380   2.276 -21.688  0.00  0.00    +0.244 N 
ATOM      8  H   UNL     1      -2.181   2.635 -22.206  0.00  0.00    +0.204 HD
ATOM      9  C   UNL     1      -0.263   1.852 -21.174  0.00  0.00    +0.169 C 
ATOM     10  C   UNL     1       0.829   1.881 -21.877  0.00  0.00    +0.004 A 
ATOM     11  C   UNL     1       1.945   1.457 -21.364  0.00  0.00    +0.058 A 
ATOM     12  C   UNL     1       3.038   1.486 -22.068  0.00  0.00    +0.162 A 
ATOM     13  C   UNL     1       3.015   1.939 -23.286  0.00  0.00    +0.162 A 
ATOM     14  C   UNL     1       1.899   2.364 -23.800  0.00  0.00    +0.053 A 
ATOM     15  C   UNL     1       0.806   2.334 -23.096  0.00  0.00    -0.030 A 
ATOM     16  C   UNL     1      -0.310   2.759 -23.610  0.00  0.00    +0.095 C 
ATOM     17  C   UNL     1      -4.727   3.548 -23.231  0.00  0.00    +0.053 A 
ATOM     18  C   UNL     1      -1.402   2.729 -22.906  0.00  0.00    +0.100 C 
ATOM     19  C   UNL     1      -4.751   4.002 -24.449  0.00  0.00    +0.159 A 
ENDROOT
BRANCH   1  21
ATOM     20  C   UNL     1      -3.317   3.720 -27.357  0.00  0.00    +0.277 C 
ATOM     21  O   UNL     1      -3.682   4.485 -26.371  0.00  0.00    -0.491 OA
ENDBRANCH   1  21
BRANCH  13  22
ATOM     22  O   UNL     1       4.107   1.969 -23.989  0.00  0.00    -0.491 OA
ATOM     23  C   UNL     1       4.953   2.944 -23.836  0.00  0.00    +0.277 C 
ENDBRANCH  13  22
BRANCH  12  24
ATOM     24  O   UNL     1       4.154   1.062 -21.553  0.00  0.00    -0.491 OA
ATOM     25  C   UNL     1       4.136   0.179 -20.598  0.00  0.00    +0.277 C 
ENDBRANCH  12  24
BRANCH  19  26
ATOM     26  O   UNL     1      -5.867   4.426 -24.963  0.00  0.00    -0.503 OA
ATOM     27  H   UNL     1      -5.909   5.276 -25.354  0.00  0.00    +0.292 HD
ENDBRANCH  19  26
TORSDOF 4
ENDMDL
MODEL 2
REMARK VINA RESULT:    -8.548      1.570      7.509
REMARK INTER + INTRA:         -10.579
REMARK INTER:                 -10.916
REMARK INTRA:                   0.337
REMARK UNBOUND:                -0.282
REMARK  Name = ZINC000019908782
REMARK  7 active torsions:
REMARK  status: ('A' for Active; 'I' for Inactive)
REMARK    1  A    between atoms: C_1  and  O_2
REMARK    2  A    between atoms: O_2  and  C_3
REMARK    3  A    between atoms: C_8  and  O_9
REMARK    4  A    between atoms: C_16  and  O_17
REMARK    5  A    between atoms: O_17  and  C_18
REMARK    6  A    between atoms: C_19  and  O_20
REMARK    7  A    between atoms: O_20  and  C_21
REMARK                            x       y       z     vdW  Elec       q    Type
REMARK                         _______ _______ _______ _____ _____    ______ ____
ROOT
ATOM      1  C   UNL     1       3.145   0.758 -22.153  0.00  0.00    +0.162 A 
ATOM      2  C   UNL     1       1.948   1.227 -22.350  0.00  0.00    +0.058 A 
ATOM      3  C   UNL     1       1.696   1.943 -23.405  0.00  0.00    +0.008 A 
ATOM      4  C   UNL     1       2.640   2.190 -24.263  0.00  0.00    -0.030 A 
ATOM      5  C   UNL     1       2.387   2.906 -25.319  0.00  0.00    +0.086 C 
ATOM      6  C   UNL     1       1.191   3.375 -25.516  0.00  0.00    +0.137 C 
ATOM      7  N   UNL     1       0.247   3.128 -24.656  0.00  0.00    +0.244 N 
ATOM      8  H   UNL     1       1.134   2.704 -24.386  0.00  0.00    +0.204 HD
ATOM      9  C   UNL     1      -0.950   3.597 -24.853  0.00  0.00    +0.169 C 
ATOM     10  C   UNL     1      -1.894   3.350 -23.994  0.00  0.00    +0.004 A 
ATOM     11  C   UNL     1      -3.090   3.818 -24.190  0.00  0.00    +0.058 A 
ATOM     12  C   UNL     1      -4.035   3.571 -23.332  0.00  0.00    +0.162 A 
ATOM     13  C   UNL     1      -3.782   2.855 -22.276  0.00  0.00    +0.162 A 
ATOM     14  C   UNL     1      -2.586   2.386 -22.079  0.00  0.00    +0.053 A 
ATOM     15  C   UNL     1      -1.641   2.634 -22.939  0.00  0.00    -0.030 A 
ATOM     16  C   UNL     1      -0.445   2.165 -22.742  0.00  0.00    +0.095 C 
ATOM     17  C   UNL     1       3.836   1.721 -24.067  0.00  0.00    +0.053 A 
ATOM     18  C   UNL     1       0.499   2.412 -23.601  0.00  0.00    +0.100 C 
ATOM     19  C   UNL     1       4.088   1.005 -23.011  0.00  0.00    +0.159 A 
ENDROOT
BRANCH   1  21
ATOM     20  C   UNL     1       4.315   0.422 -20.258  0.00  0.00    +0.277 C 
ATOM     21  O   UNL     1       3.397   0.043 -21.097  0.00  0.00    -0.491 OA
ENDBRANCH   1  21
BRANCH  13  22
ATOM     22  O   UNL     1      -4.726   2.608 -21.418  0.00  0.00    -0.491 OA
ATOM     23  C   UNL     1      -4.428   2.153 -20.237  0.00  0.00    +0.277 C 
ENDBRANCH  13  22
BRANCH  12  24
ATOM     24  O   UNL     1      -5.231   4.040 -23.528  0.00  0.00    -0.491 OA
ATOM     25  C   UNL     1      -5.585   4.442 -24.713  0.00  0.00    +0.277 C 
ENDBRANCH  12  24
BRANCH  19  26
ATOM     26  O   UNL     1       5.284   0.537 -22.815  0.00  0.00    -0.503 OA
ATOM     27  H   UNL     1       5.624  -0.132 -23.377  0.00  0.00    +0.292 HD
ENDBRANCH  19  26
TORSDOF 4
ENDMDL
MODEL 3
REMARK VINA RESULT:    -8.142      1.204      7.015
REMARK INTER + INTRA:         -10.089
REMARK INTER:                 -10.172
REMARK INTRA:                   0.083
REMARK UNBOUND:                -0.282
REMARK  Name = ZINC000019908782
REMARK  7 active torsions:
REMARK  status: ('A' for Active; 'I' for Inactive)
REMARK    1  A    between atoms: C_1  and  O_2
REMARK    2  A    between atoms: O_2  and  C_3
REMARK    3  A    between atoms: C_8  and  O_9
REMARK    4  A    between atoms: C_16  and  O_17
REMARK    5  A    between atoms: O_17  and  C_18
REMARK    6  A    between atoms: C_19  and  O_20
REMARK    7  A    between atoms: O_20  and  C_21
REMARK                            x       y       z     vdW  Elec       q    Type
REMARK                         _______ _______ _______ _____ _____    ______ ____
ROOT
ATOM      1  C   UNL     1       4.375   2.526 -23.089  0.00  0.00    +0.162 A 
ATOM      2  C   UNL     1       3.085   2.659 -23.175  0.00  0.00    +0.058 A 
ATOM      3  C   UNL     1       2.322   2.238 -22.211  0.00  0.00    +0.008 A 
ATOM      4  C   UNL     1       2.849   1.684 -21.160  0.00  0.00    -0.030 A 
ATOM      5  C   UNL     1       2.085   1.264 -20.195  0.00  0.00    +0.086 C 
ATOM      6  C   UNL     1       0.795   1.397 -20.282  0.00  0.00    +0.137 C 
ATOM      7  N   UNL     1       0.269   1.951 -21.333  0.00  0.00    +0.244 N 
ATOM      8  H   UNL     1       1.286   1.907 -21.390  0.00  0.00    +0.204 HD
ATOM      9  C   UNL     1      -1.022   2.084 -21.420  0.00  0.00    +0.169 C 
ATOM     10  C   UNL     1      -1.549   2.638 -22.471  0.00  0.00    +0.004 A 
ATOM     11  C   UNL     1      -2.839   2.771 -22.558  0.00  0.00    +0.058 A 
ATOM     12  C   UNL     1      -3.366   3.325 -23.610  0.00  0.00    +0.162 A 
ATOM     13  C   UNL     1      -2.603   3.746 -24.574  0.00  0.00    +0.162 A 
ATOM     14  C   UNL     1      -1.313   3.613 -24.488  0.00  0.00    +0.053 A 
ATOM     15  C   UNL     1      -0.786   3.058 -23.436  0.00  0.00    -0.030 A 
ATOM     16  C   UNL     1       0.504   2.925 -23.349  0.00  0.00    +0.095 C 
ATOM     17  C   UNL     1       4.139   1.551 -21.074  0.00  0.00    +0.053 A 
ATOM     18  C   UNL     1       1.031   2.372 -22.298  0.00  0.00    +0.100 C 
ATOM     19  C   UNL     1       4.902   1.972 -22.038  0.00  0.00    +0.159 A 
ENDROOT
BRANCH   1  21
ATOM     20  C   UNL     1       5.810   4.051 -23.917  0.00  0.00    +0.277 C 
ATOM     21  O   UNL     1       5.139   2.946 -24.054  0.00  0.00    -0.491 OA
ENDBRANCH   1  21
BRANCH  13  22
ATOM     22  O   UNL     1      -3.130   4.300 -25.625  0.00  0.00    -0.491 OA
ATOM     23  C   UNL     1      -3.260   3.616 -26.724  0.00  0.00    +0.277 C 
ENDBRANCH  13  22
BRANCH  12  24
ATOM     24  O   UNL     1      -4.657   3.458 -23.696  0.00  0.00    -0.491 OA
ATOM     25  C   UNL     1      -5.386   3.442 -22.620  0.00  0.00    +0.277 C 
ENDBRANCH  12  24
BRANCH  19  26
ATOM     26  O   UNL     1       6.192   1.838 -21.951  0.00  0.00    -0.503 OA
ATOM     27  H   UNL     1       6.756   2.469 -22.354  0.00  0.00    +0.292 HD
ENDBRANCH  19  26
TORSDOF 4
ENDMDL
MODEL 4
REMARK VINA RESULT:    -7.941      4.943      6.952
REMARK INTER + INTRA:          -9.847
REMARK INTER:                  -9.560
REMARK INTRA:                  -0.287
REMARK UNBOUND:                -0.282
REMARK  Name = ZINC000019908782
REMARK  7 active torsions:
REMARK  status: ('A' for Active; 'I' for Inactive)
REMARK    1  A    between atoms: C_1  and  O_2
REMARK    2  A    between atoms: O_2  and  C_3
REMARK    3  A    between atoms: C_8  and  O_9
REMARK    4  A    between atoms: C_16  and  O_17
REMARK    5  A    between atoms: O_17  and  C_18
REMARK    6  A    between atoms: C_19  and  O_20
REMARK    7  A    between atoms: O_20  and  C_21
REMARK                            x       y       z     vdW  Elec       q    Type
REMARK                         _______ _______ _______ _____ _____    ______ ____
ROOT
ATOM      1  C   UNL     1       0.559   4.251 -23.705  0.00  0.00    +0.162 A 
ATOM      2  C   UNL     1       1.561   4.964 -23.283  0.00  0.00    +0.058 A 
ATOM      3  C   UNL     1       2.767   4.480 -23.323  0.00  0.00    +0.008 A 
ATOM      4  C   UNL     1       2.971   3.283 -23.785  0.00  0.00    -0.030 A 
ATOM      5  C   UNL     1       4.177   2.798 -23.825  0.00  0.00    +0.086 C 
ATOM      6  C   UNL     1       5.178   3.511 -23.403  0.00  0.00    +0.137 C 
ATOM      7  N   UNL     1       4.974   4.709 -22.942  0.00  0.00    +0.244 N 
ATOM      8  H   UNL     1       4.108   4.258 -23.238  0.00  0.00    +0.204 HD
ATOM      9  C   UNL     1       5.976   5.423 -22.519  0.00  0.00    +0.169 C 
ATOM     10  C   UNL     1       5.772   6.620 -22.058  0.00  0.00    +0.004 A 
ATOM     11  C   UNL     1       6.773   7.334 -21.636  0.00  0.00    +0.058 A 
ATOM     12  C   UNL     1       6.569   8.532 -21.174  0.00  0.00    +0.162 A 
ATOM     13  C   UNL     1       5.363   9.016 -21.133  0.00  0.00    +0.162 A 
ATOM     14  C   UNL     1       4.362   8.303 -21.555  0.00  0.00    +0.053 A 
ATOM     15  C   UNL     1       4.566   7.105 -22.017  0.00  0.00    -0.030 A 
ATOM     16  C   UNL     1       3.564   6.392 -22.439  0.00  0.00    +0.095 C 
ATOM     17  C   UNL     1       1.969   2.570 -24.207  0.00  0.00    +0.053 A 
ATOM     18  C   UNL     1       3.768   5.194 -22.901  0.00  0.00    +0.100 C 
ATOM     19  C   UNL     1       0.763   3.054 -24.166  0.00  0.00    +0.159 A 
ENDROOT
BRANCH   1  21
ATOM     20  C   UNL     1      -1.266   4.846 -22.527  0.00  0.00    +0.277 C 
ATOM     21  O   UNL     1      -0.646   4.736 -23.664  0.00  0.00    -0.491 OA
ENDBRANCH   1  21
BRANCH  13  22
ATOM     22  O   UNL     1       5.159  10.214 -20.672  0.00  0.00    -0.491 OA
ATOM     23  C   UNL     1       3.958  10.709 -20.659  0.00  0.00    +0.277 C 
ENDBRANCH  13  22
BRANCH  12  24
ATOM     24  O   UNL     1       7.571   9.245 -20.752  0.00  0.00    -0.491 OA
ATOM     25  C   UNL     1       8.776   8.759 -20.788  0.00  0.00    +0.277 C 
ENDBRANCH  12  24
BRANCH  19  26
ATOM     26  O   UNL     1      -0.237   2.341 -24.588  0.00  0.00    -0.503 OA
ATOM     27  H   UNL     1      -0.231   1.411 -24.473  0.00  0.00    +0.292 HD
ENDBRANCH  19  26
TORSDOF 4
ENDMDL
MODEL 5
REMARK VINA RESULT:    -7.703      2.194      7.466
REMARK INTER + INTRA:          -9.561
REMARK INTER:                  -9.791
REMARK INTRA:                   0.230
REMARK UNBOUND:                -0.282
REMARK  Name = ZINC000019908782
REMARK  7 active torsions:
REMARK  status: ('A' for Active; 'I' for Inactive)
REMARK    1  A    between atoms: C_1  and  O_2
REMARK    2  A    between atoms: O_2  and  C_3
REMARK    3  A    between atoms: C_8  and  O_9
REMARK    4  A    between atoms: C_16  and  O_17
REMARK    5  A    between atoms: O_17  and  C_18
REMARK    6  A    between atoms: C_19  and  O_20
REMARK    7  A    between atoms: O_20  and  C_21
REMARK                            x       y       z     vdW  Elec       q    Type
REMARK                         _______ _______ _______ _____ _____    ______ ____
ROOT
ATOM      1  C   UNL     1       5.709   4.134 -22.931  0.00  0.00    +0.162 A 
ATOM      2  C   UNL     1       4.430   3.906 -22.911  0.00  0.00    +0.058 A 
ATOM      3  C   UNL     1       3.979   2.768 -22.475  0.00  0.00    +0.008 A 
ATOM      4  C   UNL     1       4.807   1.857 -22.059  0.00  0.00    -0.030 A 
ATOM      5  C   UNL     1       4.356   0.718 -21.624  0.00  0.00    +0.086 C 
ATOM      6  C   UNL     1       3.077   0.490 -21.603  0.00  0.00    +0.137 C 
ATOM      7  N   UNL     1       2.249   1.402 -22.019  0.00  0.00    +0.244 N 
ATOM      8  H   UNL     1       3.220   1.705 -22.087  0.00  0.00    +0.204 HD
ATOM      9  C   UNL     1       0.968   1.174 -21.999  0.00  0.00    +0.169 C 
ATOM     10  C   UNL     1       0.139   2.085 -22.415  0.00  0.00    +0.004 A 
ATOM     11  C   UNL     1      -1.140   1.857 -22.395  0.00  0.00    +0.058 A 
ATOM     12  C   UNL     1      -1.970   2.768 -22.810  0.00  0.00    +0.162 A 
ATOM     13  C   UNL     1      -1.519   3.907 -23.246  0.00  0.00    +0.162 A 
ATOM     14  C   UNL     1      -0.239   4.135 -23.266  0.00  0.00    +0.053 A 
ATOM     15  C   UNL     1       0.590   3.223 -22.850  0.00  0.00    -0.030 A 
ATOM     16  C   UNL     1       1.870   3.451 -22.871  0.00  0.00    +0.095 C 
ATOM     17  C   UNL     1       6.087   2.085 -22.080  0.00  0.00    +0.053 A 
ATOM     18  C   UNL     1       2.698   2.541 -22.455  0.00  0.00    +0.100 C 
ATOM     19  C   UNL     1       6.538   3.224 -22.516  0.00  0.00    +0.159 A 
ENDROOT
BRANCH   1  21
ATOM     20  C   UNL     1       6.222   6.297 -22.568  0.00  0.00    +0.277 C 
ATOM     21  O   UNL     1       6.160   5.273 -23.367  0.00  0.00    -0.491 OA
ENDBRANCH   1  21
BRANCH  13  22
ATOM     22  O   UNL     1      -2.347   4.818 -23.662  0.00  0.00    -0.491 OA
ATOM     23  C   UNL     1      -2.996   4.647 -24.775  0.00  0.00    +0.277 C 
ENDBRANCH  13  22
BRANCH  12  24
ATOM     24  O   UNL     1      -3.249   2.540 -22.790  0.00  0.00    -0.491 OA
ATOM     25  C   UNL     1      -3.898   2.576 -21.664  0.00  0.00    +0.277 C 
ENDBRANCH  12  24
BRANCH  19  26
ATOM     26  O   UNL     1       7.817   3.451 -22.536  0.00  0.00    -0.503 OA
ATOM     27  H   UNL     1       8.206   3.875 -23.275  0.00  0.00    +0.292 HD
ENDBRANCH  19  26
TORSDOF 4
ENDMDL
MODEL 6
REMARK VINA RESULT:    -7.468      5.262      8.258
REMARK INTER + INTRA:          -9.278
REMARK INTER:                  -9.021
REMARK INTRA:                  -0.256
REMARK UNBOUND:                -0.282
REMARK  Name = ZINC000019908782
REMARK  7 active torsions:
REMARK  status: ('A' for Active; 'I' for Inactive)
REMARK    1  A    between atoms: C_1  and  O_2
REMARK    2  A    between atoms: O_2  and  C_3
REMARK    3  A    between atoms: C_8  and  O_9
REMARK    4  A    between atoms: C_16  and  O_17
REMARK    5  A    between atoms: O_17  and  C_18
REMARK    6  A    between atoms: C_19  and  O_20
REMARK    7  A    between atoms: O_20  and  C_21
REMARK                            x       y       z     vdW  Elec       q    Type
REMARK                         _______ _______ _______ _____ _____    ______ ____
ROOT
ATOM      1  C   UNL     1       4.490   9.744 -21.311  0.00  0.00    +0.162 A 
ATOM      2  C   UNL     1       4.135   8.582 -21.774  0.00  0.00    +0.058 A 
ATOM      3  C   UNL     1       4.989   7.601 -21.794  0.00  0.00    +0.008 A 
ATOM      4  C   UNL     1       6.197   7.782 -21.350  0.00  0.00    -0.030 A 
ATOM      5  C   UNL     1       7.050   6.802 -21.370  0.00  0.00    +0.086 C 
ATOM      6  C   UNL     1       6.695   5.640 -21.833  0.00  0.00    +0.137 C 
ATOM      7  N   UNL     1       5.486   5.460 -22.277  0.00  0.00    +0.244 N 
ATOM      8  H   UNL     1       5.635   6.412 -21.943  0.00  0.00    +0.204 HD
ATOM      9  C   UNL     1       5.131   4.298 -22.741  0.00  0.00    +0.169 C 
ATOM     10  C   UNL     1       3.923   4.117 -23.184  0.00  0.00    +0.004 A 
ATOM     11  C   UNL     1       3.568   2.956 -23.648  0.00  0.00    +0.058 A 
ATOM     12  C   UNL     1       2.359   2.775 -24.092  0.00  0.00    +0.162 A 
ATOM     13  C   UNL     1       1.506   3.755 -24.072  0.00  0.00    +0.162 A 
ATOM     14  C   UNL     1       1.861   4.917 -23.609  0.00  0.00    +0.053 A 
ATOM     15  C   UNL     1       3.070   5.098 -23.165  0.00  0.00    -0.030 A 
ATOM     16  C   UNL     1       3.425   6.259 -22.701  0.00  0.00    +0.095 C 
ATOM     17  C   UNL     1       6.551   8.944 -20.887  0.00  0.00    +0.053 A 
ATOM     18  C   UNL     1       4.633   6.440 -22.258  0.00  0.00    +0.100 C 
ATOM     19  C   UNL     1       5.698   9.925 -20.867  0.00  0.00    +0.159 A 
ENDROOT
BRANCH   1  21
ATOM     20  C   UNL     1       3.380  11.385 -22.381  0.00  0.00    +0.277 C 
ATOM     21  O   UNL     1       3.637  10.724 -21.291  0.00  0.00    -0.491 OA
ENDBRANCH   1  21
BRANCH  13  22
ATOM     22  O   UNL     1       0.298   3.574 -24.516  0.00  0.00    -0.491 OA
ATOM     23  C   UNL     1      -0.694   4.226 -23.985  0.00  0.00    +0.277 C 
ENDBRANCH  13  22
BRANCH  12  24
ATOM     24  O   UNL     1       2.004   1.613 -24.555  0.00  0.00    -0.491 OA
ATOM     25  C   UNL     1       2.909   0.737 -24.876  0.00  0.00    +0.277 C 
ENDBRANCH  12  24
BRANCH  19  26
ATOM     26  O   UNL     1       6.053  11.085 -20.404  0.00  0.00    -0.503 OA
ATOM     27  H   UNL     1       5.463  11.577 -19.867  0.00  0.00    +0.292 HD
ENDBRANCH  19  26
TORSDOF 4
ENDMDL
MODEL 7
REMARK VINA RESULT:    -6.793      3.420      8.023
REMARK INTER + INTRA:          -8.464
REMARK INTER:                  -8.583
REMARK INTRA:                   0.119
REMARK UNBOUND:                -0.282
REMARK  Name = ZINC000019908782
REMARK  7 active torsions:
REMARK  status: ('A' for Active; 'I' for Inactive)
REMARK    1  A    between atoms: C_1  and  O_2
REMARK    2  A    between atoms: O_2  and  C_3
REMARK    3  A    between atoms: C_8  and  O_9
REMARK    4  A    between atoms: C_16  and  O_17
REMARK    5  A    between atoms: O_17  and  C_18
REMARK    6  A    between atoms: C_19  and  O_20
REMARK    7  A    between atoms: O_20  and  C_21
REMARK                            x       y       z     vdW  Elec       q    Type
REMARK                         _______ _______ _______ _____ _____    ______ ____
ROOT
ATOM      1  C   UNL     1       5.733   6.917 -22.052  0.00  0.00    +0.162 A 
ATOM      2  C   UNL     1       4.650   6.255 -22.333  0.00  0.00    +0.058 A 
ATOM      3  C   UNL     1       4.731   5.073 -22.868  0.00  0.00    +0.008 A 
ATOM      4  C   UNL     1       5.894   4.553 -23.122  0.00  0.00    -0.030 A 
ATOM      5  C   UNL     1       5.974   3.371 -23.657  0.00  0.00    +0.086 C 
ATOM      6  C   UNL     1       4.891   2.709 -23.938  0.00  0.00    +0.137 C 
ATOM      7  N   UNL     1       3.728   3.230 -23.683  0.00  0.00    +0.244 N 
ATOM      8  H   UNL     1       4.493   3.849 -23.416  0.00  0.00    +0.204 HD
ATOM      9  C   UNL     1       2.644   2.569 -23.964  0.00  0.00    +0.169 C 
ATOM     10  C   UNL     1       1.480   3.089 -23.710  0.00  0.00    +0.004 A 
ATOM     11  C   UNL     1       0.397   2.428 -23.990  0.00  0.00    +0.058 A 
ATOM     12  C   UNL     1      -0.767   2.948 -23.736  0.00  0.00    +0.162 A 
ATOM     13  C   UNL     1      -0.847   4.130 -23.201  0.00  0.00    +0.162 A 
ATOM     14  C   UNL     1       0.236   4.792 -22.920  0.00  0.00    +0.053 A 
ATOM     15  C   UNL     1       1.400   4.271 -23.175  0.00  0.00    -0.030 A 
ATOM     16  C   UNL     1       2.483   4.933 -22.894  0.00  0.00    +0.095 C 
ATOM     17  C   UNL     1       6.977   5.215 -22.841  0.00  0.00    +0.053 A 
ATOM     18  C   UNL     1       3.647   4.412 -23.148  0.00  0.00    +0.100 C 
ATOM     19  C   UNL     1       6.897   6.397 -22.306  0.00  0.00    +0.159 A 
ENDROOT
BRANCH   1  21
ATOM     20  C   UNL     1       4.784   8.331 -20.579  0.00  0.00    +0.277 C 
ATOM     21  O   UNL     1       5.653   8.099 -21.517  0.00  0.00    -0.491 OA
ENDBRANCH   1  21
BRANCH  13  22
ATOM     22  O   UNL     1      -2.011   4.651 -22.947  0.00  0.00    -0.491 OA
ATOM     23  C   UNL     1      -2.577   4.446 -21.795  0.00  0.00    +0.277 C 
ENDBRANCH  13  22
BRANCH  12  24
ATOM     24  O   UNL     1      -1.850   2.287 -24.017  0.00  0.00    -0.491 OA
ATOM     25  C   UNL     1      -2.544   2.593 -25.073  0.00  0.00    +0.277 C 
ENDBRANCH  12  24
BRANCH  19  26
ATOM     26  O   UNL     1       7.980   7.058 -22.026  0.00  0.00    -0.503 OA
ATOM     27  H   UNL     1       8.611   6.694 -21.436  0.00  0.00    +0.292 HD
ENDBRANCH  19  26
TORSDOF 4
ENDMDL
MODEL 8
REMARK VINA RESULT:    -6.501      4.977      9.311
REMARK INTER + INTRA:          -8.113
REMARK INTER:                  -7.781
REMARK INTRA:                  -0.332
REMARK UNBOUND:                -0.282
REMARK  Name = ZINC000019908782
REMARK  7 active torsions:
REMARK  status: ('A' for Active; 'I' for Inactive)
REMARK    1  A    between atoms: C_1  and  O_2
REMARK    2  A    between atoms: O_2  and  C_3
REMARK    3  A    between atoms: C_8  and  O_9
REMARK    4  A    between atoms: C_16  and  O_17
REMARK    5  A    between atoms: O_17  and  C_18
REMARK    6  A    between atoms: C_19  and  O_20
REMARK    7  A    between atoms: O_20  and  C_21
REMARK                            x       y       z     vdW  Elec       q    Type
REMARK                         _______ _______ _______ _____ _____    ______ ____
ROOT
ATOM      1  C   UNL     1       7.059   8.632 -21.088  0.00  0.00    +0.162 A 
ATOM      2  C   UNL     1       6.367   7.638 -21.562  0.00  0.00    +0.058 A 
ATOM      3  C   UNL     1       6.975   6.590 -22.033  0.00  0.00    +0.008 A 
ATOM      4  C   UNL     1       8.273   6.535 -22.031  0.00  0.00    -0.030 A 
ATOM      5  C   UNL     1       8.880   5.487 -22.502  0.00  0.00    +0.086 C 
ATOM      6  C   UNL     1       8.189   4.493 -22.976  0.00  0.00    +0.137 C 
ATOM      7  N   UNL     1       6.890   4.548 -22.977  0.00  0.00    +0.244 N 
ATOM      8  H   UNL     1       7.310   5.388 -22.581  0.00  0.00    +0.204 HD
ATOM      9  C   UNL     1       6.198   3.554 -23.451  0.00  0.00    +0.169 C 
ATOM     10  C   UNL     1       4.899   3.608 -23.453  0.00  0.00    +0.004 A 
ATOM     11  C   UNL     1       4.208   2.615 -23.926  0.00  0.00    +0.058 A 
ATOM     12  C   UNL     1       2.909   2.669 -23.929  0.00  0.00    +0.162 A 
ATOM     13  C   UNL     1       2.301   3.718 -23.458  0.00  0.00    +0.162 A 
ATOM     14  C   UNL     1       2.993   4.712 -22.984  0.00  0.00    +0.053 A 
ATOM     15  C   UNL     1       4.292   4.657 -22.982  0.00  0.00    -0.030 A 
ATOM     16  C   UNL     1       4.984   5.651 -22.509  0.00  0.00    +0.095 C 
ATOM     17  C   UNL     1       8.964   7.529 -21.557  0.00  0.00    +0.053 A 
ATOM     18  C   UNL     1       6.282   5.596 -22.506  0.00  0.00    +0.100 C 
ATOM     19  C   UNL     1       8.357   8.577 -21.086  0.00  0.00    +0.159 A 
ENDROOT
BRANCH   1  21
ATOM     20  C   UNL     1       5.283  10.016 -21.076  0.00  0.00    +0.277 C 
ATOM     21  O   UNL     1       6.452   9.680 -20.617  0.00  0.00    -0.491 OA
ENDBRANCH   1  21
BRANCH  13  22
ATOM     22  O   UNL     1       1.003   3.773 -23.460  0.00  0.00    -0.491 OA
ATOM     23  C   UNL     1       0.401   4.912 -23.628  0.00  0.00    +0.277 C 
ENDBRANCH  13  22
BRANCH  12  24
ATOM     24  O   UNL     1       2.217   1.676 -24.402  0.00  0.00    -0.491 OA
ATOM     25  C   UNL     1       2.793   0.781 -25.150  0.00  0.00    +0.277 C 
ENDBRANCH  12  24
BRANCH  19  26
ATOM     26  O   UNL     1       9.049   9.570 -20.613  0.00  0.00    -0.503 OA
ATOM     27  H   UNL     1       9.961   9.644 -20.814  0.00  0.00    +0.292 HD
ENDBRANCH  19  26
TORSDOF 4
ENDMDL
MODEL 9
REMARK VINA RESULT:    -6.412      3.302      5.211
REMARK INTER + INTRA:          -8.005
REMARK INTER:                  -7.724
REMARK INTRA:                  -0.282
REMARK UNBOUND:                -0.282
REMARK  Name = ZINC000019908782
REMARK  7 active torsions:
REMARK  status: ('A' for Active; 'I' for Inactive)
REMARK    1  A    between atoms: C_1  and  O_2
REMARK    2  A    between atoms: O_2  and  C_3
REMARK    3  A    between atoms: C_8  and  O_9
REMARK    4  A    between atoms: C_16  and  O_17
REMARK    5  A    between atoms: O_17  and  C_18
REMARK    6  A    between atoms: C_19  and  O_20
REMARK    7  A    between atoms: O_20  and  C_21
REMARK                            x       y       z     vdW  Elec       q    Type
REMARK                         _______ _______ _______ _____ _____    ______ ____
ROOT
ATOM      1  C   UNL     1      -0.183   3.458 -23.395  0.00  0.00    +0.162 A 
ATOM      2  C   UNL     1       1.077   3.688 -23.173  0.00  0.00    +0.058 A 
ATOM      3  C   UNL     1       1.861   2.718 -22.808  0.00  0.00    +0.008 A 
ATOM      4  C   UNL     1       1.385   1.517 -22.665  0.00  0.00    -0.030 A 
ATOM      5  C   UNL     1       2.170   0.547 -22.300  0.00  0.00    +0.086 C 
ATOM      6  C   UNL     1       3.430   0.777 -22.078  0.00  0.00    +0.137 C 
ATOM      7  N   UNL     1       3.905   1.979 -22.222  0.00  0.00    +0.244 N 
ATOM      8  H   UNL     1       2.907   1.933 -22.425  0.00  0.00    +0.204 HD
ATOM      9  C   UNL     1       5.166   2.210 -22.001  0.00  0.00    +0.169 C 
ATOM     10  C   UNL     1       5.641   3.410 -22.144  0.00  0.00    +0.004 A 
ATOM     11  C   UNL     1       6.901   3.642 -21.923  0.00  0.00    +0.058 A 
ATOM     12  C   UNL     1       7.377   4.843 -22.067  0.00  0.00    +0.162 A 
ATOM     13  C   UNL     1       6.593   5.813 -22.432  0.00  0.00    +0.162 A 
ATOM     14  C   UNL     1       5.333   5.583 -22.653  0.00  0.00    +0.053 A 
ATOM     15  C   UNL     1       4.857   4.381 -22.509  0.00  0.00    -0.030 A 
ATOM     16  C   UNL     1       3.597   4.150 -22.731  0.00  0.00    +0.095 C 
ATOM     17  C   UNL     1       0.125   1.287 -22.886  0.00  0.00    +0.053 A 
ATOM     18  C   UNL     1       3.121   2.950 -22.587  0.00  0.00    +0.100 C 
ATOM     19  C   UNL     1      -0.659   2.257 -23.251  0.00  0.00    +0.159 A 
ENDROOT
BRANCH   1  21
ATOM     20  C   UNL     1      -0.798   5.621 -23.271  0.00  0.00    +0.277 C 
ATOM     21  O   UNL     1      -0.968   4.428 -23.760  0.00  0.00    -0.491 OA
ENDBRANCH   1  21
BRANCH  13  22
ATOM     22  O   UNL     1       7.069   7.014 -22.575  0.00  0.00    -0.491 OA
ATOM     23  C   UNL     1       6.606   7.988 -21.849  0.00  0.00    +0.277 C 
ENDBRANCH  13  22
BRANCH  12  24
ATOM     24  O   UNL     1       8.637   5.073 -21.845  0.00  0.00    -0.491 OA
ATOM     25  C   UNL     1       9.062   5.249 -20.630  0.00  0.00    +0.277 C 
ENDBRANCH  12  24
BRANCH  19  26
ATOM     26  O   UNL     1      -1.918   2.026 -23.472  0.00  0.00    -0.503 OA
ATOM     27  H   UNL     1      -2.290   2.220 -24.310  0.00  0.00    +0.292 HD
ENDBRANCH  19  26
TORSDOF 4
ENDMDL
