MODEL 1
REMARK VINA RESULT:   -12.449      0.000      0.000
REMARK INTER + INTRA:         -12.449
REMARK INTER:                 -12.449
REMARK INTRA:                   0.000
REMARK UNBOUND:                 0.000
REMARK  Name = C[C@]12CC[C@@H]3[C@@H](CC(=O)[C@H]4CC(=O)CC[C@@]43C)[C@@H]1CCC2=O    ZINC000253504860
REMARK  2 active torsions:
REMARK  status: ('A' for Active; 'I' for Inactive)
REMARK    1  A    between atoms: C_1  and  C_2
REMARK    2  A    between atoms: C_16  and  C_17
REMARK                            x       y       z     vdW  Elec       q    Type
REMARK                         _______ _______ _______ _____ _____    ______ ____
ROOT
ATOM      1  C   UNL     1      -4.855   2.876 -21.660  0.00  0.00    +0.019 C 
ATOM      2  C   UNL     1      -4.001   3.160 -22.598  0.00  0.00    +0.029 C 
ATOM      3  C   UNL     1      -3.480   2.553 -21.574  0.00  0.00    +0.015 C 
ATOM      4  C   UNL     1      -2.207   2.284 -21.555  0.00  0.00    +0.005 C 
ATOM      5  C   UNL     1      -1.458   2.623 -22.562  0.00  0.00    -0.001 C 
ATOM      6  C   UNL     1      -1.979   3.230 -23.586  0.00  0.00    +0.004 C 
ATOM      7  C   UNL     1      -1.229   3.569 -24.593  0.00  0.00    +0.078 C 
ATOM      8  C   UNL     1       0.042   3.300 -24.575  0.00  0.00    +0.138 C 
ATOM      9  C   UNL     1       0.564   2.693 -23.550  0.00  0.00    +0.068 C 
ATOM     10  C   UNL     1       1.836   2.425 -23.532  0.00  0.00    +0.086 C 
ATOM     11  C   UNL     1       2.358   1.818 -22.508  0.00  0.00    +0.134 C 
ATOM     12  C   UNL     1       1.608   1.479 -21.501  0.00  0.00    +0.075 C 
ATOM     13  C   UNL     1       0.336   1.747 -21.519  0.00  0.00    +0.015 C 
ATOM     14  O   UNL     1       3.630   1.549 -22.490  0.00  0.00    -0.297 OA
ATOM     15  O   UNL     1       0.793   3.639 -25.581  0.00  0.00    -0.297 OA
ATOM     16  C   UNL     1      -0.186   2.355 -22.544  0.00  0.00    -0.019 C 
ATOM     17  C   UNL     1      -0.936   2.016 -21.538  0.00  0.00    +0.012 C 
ATOM     18  C   UNL     1      -5.218   3.536 -22.859  0.00  0.00    +0.139 C 
ATOM     19  O   UNL     1      -6.252   3.371 -22.089  0.00  0.00    -0.297 OA
ATOM     20  C   UNL     1      -5.220   4.107 -24.027  0.00  0.00    +0.075 C 
ATOM     21  C   UNL     1      -4.005   4.084 -24.488  0.00  0.00    +0.012 C 
ATOM     22  C   UNL     1      -3.251   3.499 -23.604  0.00  0.00    +0.006 C 
ENDROOT
TORSDOF 0
ENDMDL
MODEL 2
REMARK VINA RESULT:   -12.130      1.140      2.656
REMARK INTER + INTRA:         -12.130
REMARK INTER:                 -12.130
REMARK INTRA:                   0.000
REMARK UNBOUND:                 0.000
REMARK  Name = C[C@]12CC[C@@H]3[C@@H](CC(=O)[C@H]4CC(=O)CC[C@@]43C)[C@@H]1CCC2=O    ZINC000253504860
REMARK  2 active torsions:
REMARK  status: ('A' for Active; 'I' for Inactive)
REMARK    1  A    between atoms: C_1  and  C_2
REMARK    2  A    between atoms: C_16  and  C_17
REMARK                            x       y       z     vdW  Elec       q    Type
REMARK                         _______ _______ _______ _____ _____    ______ ____
ROOT
ATOM      1  C   UNL     1      -4.535   3.772 -23.910  0.00  0.00    +0.019 C 
ATOM      2  C   UNL     1      -3.695   3.251 -23.066  0.00  0.00    +0.029 C 
ATOM      3  C   UNL     1      -3.163   3.584 -24.205  0.00  0.00    +0.015 C 
ATOM      4  C   UNL     1      -1.896   3.384 -24.414  0.00  0.00    +0.005 C 
ATOM      5  C   UNL     1      -1.160   2.852 -23.483  0.00  0.00    -0.001 C 
ATOM      6  C   UNL     1      -1.691   2.520 -22.345  0.00  0.00    +0.004 C 
ATOM      7  C   UNL     1      -0.955   1.988 -21.414  0.00  0.00    +0.078 C 
ATOM      8  C   UNL     1       0.312   1.789 -21.623  0.00  0.00    +0.138 C 
ATOM      9  C   UNL     1       0.844   2.121 -22.762  0.00  0.00    +0.068 C 
ATOM     10  C   UNL     1       2.111   1.922 -22.971  0.00  0.00    +0.086 C 
ATOM     11  C   UNL     1       2.643   2.254 -24.109  0.00  0.00    +0.134 C 
ATOM     12  C   UNL     1       1.907   2.786 -25.040  0.00  0.00    +0.075 C 
ATOM     13  C   UNL     1       0.640   2.986 -24.831  0.00  0.00    +0.015 C 
ATOM     14  O   UNL     1       3.911   2.055 -24.318  0.00  0.00    -0.297 OA
ATOM     15  O   UNL     1       1.049   1.257 -20.693  0.00  0.00    -0.297 OA
ATOM     16  C   UNL     1       0.108   2.653 -23.692  0.00  0.00    -0.019 C 
ATOM     17  C   UNL     1      -0.628   3.185 -24.622  0.00  0.00    +0.012 C 
ATOM     18  C   UNL     1      -4.910   3.342 -22.613  0.00  0.00    +0.139 C 
ATOM     19  O   UNL     1      -5.932   3.824 -23.257  0.00  0.00    -0.297 OA
ATOM     20  C   UNL     1      -4.925   2.867 -21.403  0.00  0.00    +0.075 C 
ATOM     21  C   UNL     1      -3.719   2.482 -21.108  0.00  0.00    +0.012 C 
ATOM     22  C   UNL     1      -2.959   2.719 -22.136  0.00  0.00    +0.006 C 
ENDROOT
TORSDOF 0
ENDMDL
MODEL 3
REMARK VINA RESULT:   -11.780      1.156      5.507
REMARK INTER + INTRA:         -11.780
REMARK INTER:                 -11.780
REMARK INTRA:                   0.000
REMARK UNBOUND:                 0.000
REMARK  Name = C[C@]12CC[C@@H]3[C@@H](CC(=O)[C@H]4CC(=O)CC[C@@]43C)[C@@H]1CCC2=O    ZINC000253504860
REMARK  2 active torsions:
REMARK  status: ('A' for Active; 'I' for Inactive)
REMARK    1  A    between atoms: C_1  and  C_2
REMARK    2  A    between atoms: C_16  and  C_17
REMARK                            x       y       z     vdW  Elec       q    Type
REMARK                         _______ _______ _______ _____ _____    ______ ____
ROOT
ATOM      1  C   UNL     1       1.893   1.869 -22.390  0.00  0.00    +0.019 C 
ATOM      2  C   UNL     1       1.036   2.420 -23.197  0.00  0.00    +0.029 C 
ATOM      3  C   UNL     1       0.517   1.993 -22.084  0.00  0.00    +0.015 C 
ATOM      4  C   UNL     1      -0.757   2.137 -21.863  0.00  0.00    +0.005 C 
ATOM      5  C   UNL     1      -1.510   2.708 -22.755  0.00  0.00    -0.001 C 
ATOM      6  C   UNL     1      -0.991   3.134 -23.868  0.00  0.00    +0.004 C 
ATOM      7  C   UNL     1      -1.745   3.705 -24.761  0.00  0.00    +0.078 C 
ATOM      8  C   UNL     1      -3.018   3.849 -24.540  0.00  0.00    +0.138 C 
ATOM      9  C   UNL     1      -3.537   3.422 -23.427  0.00  0.00    +0.068 C 
ATOM     10  C   UNL     1      -4.810   3.566 -23.206  0.00  0.00    +0.086 C 
ATOM     11  C   UNL     1      -5.329   3.140 -22.093  0.00  0.00    +0.134 C 
ATOM     12  C   UNL     1      -4.575   2.569 -21.201  0.00  0.00    +0.075 C 
ATOM     13  C   UNL     1      -3.302   2.425 -21.421  0.00  0.00    +0.015 C 
ATOM     14  O   UNL     1      -6.602   3.284 -21.872  0.00  0.00    -0.297 OA
ATOM     15  O   UNL     1      -3.772   4.420 -25.432  0.00  0.00    -0.297 OA
ATOM     16  C   UNL     1      -2.783   2.852 -22.535  0.00  0.00    -0.019 C 
ATOM     17  C   UNL     1      -2.029   2.281 -21.642  0.00  0.00    +0.012 C 
ATOM     18  C   UNL     1       2.253   2.398 -23.654  0.00  0.00    +0.139 C 
ATOM     19  O   UNL     1       3.290   1.906 -23.043  0.00  0.00    -0.297 OA
ATOM     20  C   UNL     1       2.251   2.956 -24.828  0.00  0.00    +0.075 C 
ATOM     21  C   UNL     1       1.033   3.322 -25.097  0.00  0.00    +0.012 C 
ATOM     22  C   UNL     1       0.282   2.990 -24.089  0.00  0.00    +0.006 C 
ENDROOT
TORSDOF 0
ENDMDL
MODEL 4
REMARK VINA RESULT:   -10.830      1.354      6.148
REMARK INTER + INTRA:         -10.830
REMARK INTER:                 -10.830
REMARK INTRA:                   0.000
REMARK UNBOUND:                 0.000
REMARK  Name = C[C@]12CC[C@@H]3[C@@H](CC(=O)[C@H]4CC(=O)CC[C@@]43C)[C@@H]1CCC2=O    ZINC000253504860
REMARK  2 active torsions:
REMARK  status: ('A' for Active; 'I' for Inactive)
REMARK    1  A    between atoms: C_1  and  C_2
REMARK    2  A    between atoms: C_16  and  C_17
REMARK                            x       y       z     vdW  Elec       q    Type
REMARK                         _______ _______ _______ _____ _____    ______ ____
ROOT
ATOM      1  C   UNL     1       2.831   2.355 -23.979  0.00  0.00    +0.019 C 
ATOM      2  C   UNL     1       1.832   2.196 -23.162  0.00  0.00    +0.029 C 
ATOM      3  C   UNL     1       1.511   2.762 -24.288  0.00  0.00    +0.015 C 
ATOM      4  C   UNL     1       0.279   3.114 -24.510  0.00  0.00    +0.005 C 
ATOM      5  C   UNL     1      -0.631   2.899 -23.607  0.00  0.00    -0.001 C 
ATOM      6  C   UNL     1      -0.310   2.333 -22.482  0.00  0.00    +0.004 C 
ATOM      7  C   UNL     1      -1.220   2.118 -21.579  0.00  0.00    +0.078 C 
ATOM      8  C   UNL     1      -2.451   2.469 -21.801  0.00  0.00    +0.138 C 
ATOM      9  C   UNL     1      -2.773   3.036 -22.926  0.00  0.00    +0.068 C 
ATOM     10  C   UNL     1      -4.004   3.387 -23.148  0.00  0.00    +0.086 C 
ATOM     11  C   UNL     1      -4.326   3.953 -24.273  0.00  0.00    +0.134 C 
ATOM     12  C   UNL     1      -3.416   4.168 -25.176  0.00  0.00    +0.075 C 
ATOM     13  C   UNL     1      -2.184   3.817 -24.954  0.00  0.00    +0.015 C 
ATOM     14  O   UNL     1      -5.558   4.304 -24.496  0.00  0.00    -0.297 OA
ATOM     15  O   UNL     1      -3.362   2.254 -20.898  0.00  0.00    -0.297 OA
ATOM     16  C   UNL     1      -1.862   3.250 -23.829  0.00  0.00    -0.019 C 
ATOM     17  C   UNL     1      -0.952   3.465 -24.732  0.00  0.00    +0.012 C 
ATOM     18  C   UNL     1       2.967   1.759 -22.702  0.00  0.00    +0.139 C 
ATOM     19  O   UNL     1       4.110   1.799 -23.320  0.00  0.00    -0.297 OA
ATOM     20  C   UNL     1       2.757   1.274 -21.514  0.00  0.00    +0.075 C 
ATOM     21  C   UNL     1       1.494   1.411 -21.241  0.00  0.00    +0.012 C 
ATOM     22  C   UNL     1       0.922   1.981 -22.259  0.00  0.00    +0.006 C 
ENDROOT
TORSDOF 0
ENDMDL
MODEL 5
REMARK VINA RESULT:   -10.669      1.975      3.931
REMARK INTER + INTRA:         -10.669
REMARK INTER:                 -10.669
REMARK INTRA:                   0.000
REMARK UNBOUND:                 0.000
REMARK  Name = C[C@]12CC[C@@H]3[C@@H](CC(=O)[C@H]4CC(=O)CC[C@@]43C)[C@@H]1CCC2=O    ZINC000253504860
REMARK  2 active torsions:
REMARK  status: ('A' for Active; 'I' for Inactive)
REMARK    1  A    between atoms: C_1  and  C_2
REMARK    2  A    between atoms: C_16  and  C_17
REMARK                            x       y       z     vdW  Elec       q    Type
REMARK                         _______ _______ _______ _____ _____    ______ ____
ROOT
ATOM      1  C   UNL     1      -1.629   4.442 -23.652  0.00  0.00    +0.019 C 
ATOM      2  C   UNL     1      -0.990   3.534 -22.977  0.00  0.00    +0.029 C 
ATOM      3  C   UNL     1      -0.216   4.364 -23.612  0.00  0.00    +0.015 C 
ATOM      4  C   UNL     1       1.076   4.238 -23.534  0.00  0.00    +0.005 C 
ATOM      5  C   UNL     1       1.593   3.282 -22.821  0.00  0.00    -0.001 C 
ATOM      6  C   UNL     1       0.820   2.452 -22.187  0.00  0.00    +0.004 C 
ATOM      7  C   UNL     1       1.337   1.495 -21.474  0.00  0.00    +0.078 C 
ATOM      8  C   UNL     1       2.628   1.369 -21.396  0.00  0.00    +0.138 C 
ATOM      9  C   UNL     1       3.403   2.200 -22.031  0.00  0.00    +0.068 C 
ATOM     10  C   UNL     1       4.694   2.073 -21.953  0.00  0.00    +0.086 C 
ATOM     11  C   UNL     1       5.467   2.903 -22.587  0.00  0.00    +0.134 C 
ATOM     12  C   UNL     1       4.950   3.860 -23.300  0.00  0.00    +0.075 C 
ATOM     13  C   UNL     1       3.659   3.986 -23.378  0.00  0.00    +0.015 C 
ATOM     14  O   UNL     1       6.759   2.777 -22.509  0.00  0.00    -0.297 OA
ATOM     15  O   UNL     1       3.147   0.413 -20.684  0.00  0.00    -0.297 OA
ATOM     16  C   UNL     1       2.884   3.155 -22.743  0.00  0.00    -0.019 C 
ATOM     17  C   UNL     1       2.367   4.112 -23.456  0.00  0.00    +0.012 C 
ATOM     18  C   UNL     1      -2.284   3.443 -22.892  0.00  0.00    +0.139 C 
ATOM     19  O   UNL     1      -3.145   4.226 -23.470  0.00  0.00    -0.297 OA
ATOM     20  C   UNL     1      -2.566   2.430 -22.127  0.00  0.00    +0.075 C 
ATOM     21  C   UNL     1      -1.446   1.896 -21.739  0.00  0.00    +0.012 C 
ATOM     22  C   UNL     1      -0.472   2.578 -22.265  0.00  0.00    +0.006 C 
ENDROOT
TORSDOF 0
ENDMDL
MODEL 6
REMARK VINA RESULT:   -10.149      2.109      6.544
REMARK INTER + INTRA:         -10.149
REMARK INTER:                 -10.149
REMARK INTRA:                   0.000
REMARK UNBOUND:                 0.000
REMARK  Name = C[C@]12CC[C@@H]3[C@@H](CC(=O)[C@H]4CC(=O)CC[C@@]43C)[C@@H]1CCC2=O    ZINC000253504860
REMARK  2 active torsions:
REMARK  status: ('A' for Active; 'I' for Inactive)
REMARK    1  A    between atoms: C_1  and  C_2
REMARK    2  A    between atoms: C_16  and  C_17
REMARK                            x       y       z     vdW  Elec       q    Type
REMARK                         _______ _______ _______ _____ _____    ______ ____
ROOT
ATOM      1  C   UNL     1       4.341   4.439 -23.262  0.00  0.00    +0.019 C 
ATOM      2  C   UNL     1       3.518   3.565 -22.764  0.00  0.00    +0.029 C 
ATOM      3  C   UNL     1       2.939   4.511 -23.442  0.00  0.00    +0.015 C 
ATOM      4  C   UNL     1       1.645   4.520 -23.570  0.00  0.00    +0.005 C 
ATOM      5  C   UNL     1       0.931   3.583 -23.019  0.00  0.00    -0.001 C 
ATOM      6  C   UNL     1       1.511   2.638 -22.341  0.00  0.00    +0.004 C 
ATOM      7  C   UNL     1       0.797   1.701 -21.791  0.00  0.00    +0.078 C 
ATOM      8  C   UNL     1      -0.497   1.710 -21.919  0.00  0.00    +0.138 C 
ATOM      9  C   UNL     1      -1.077   2.656 -22.597  0.00  0.00    +0.068 C 
ATOM     10  C   UNL     1      -2.370   2.665 -22.725  0.00  0.00    +0.086 C 
ATOM     11  C   UNL     1      -2.949   3.611 -23.403  0.00  0.00    +0.134 C 
ATOM     12  C   UNL     1      -2.235   4.548 -23.953  0.00  0.00    +0.075 C 
ATOM     13  C   UNL     1      -0.942   4.539 -23.825  0.00  0.00    +0.015 C 
ATOM     14  O   UNL     1      -4.243   3.620 -23.530  0.00  0.00    -0.297 OA
ATOM     15  O   UNL     1      -1.211   0.773 -21.369  0.00  0.00    -0.297 OA
ATOM     16  C   UNL     1      -0.362   3.592 -23.147  0.00  0.00    -0.019 C 
ATOM     17  C   UNL     1       0.352   4.529 -23.697  0.00  0.00    +0.012 C 
ATOM     18  C   UNL     1       4.768   3.330 -22.491  0.00  0.00    +0.139 C 
ATOM     19  O   UNL     1       5.782   4.050 -22.871  0.00  0.00    -0.297 OA
ATOM     20  C   UNL     1       4.826   2.248 -21.773  0.00  0.00    +0.075 C 
ATOM     21  C   UNL     1       3.613   1.814 -21.601  0.00  0.00    +0.012 C 
ATOM     22  C   UNL     1       2.805   2.628 -22.213  0.00  0.00    +0.006 C 
ENDROOT
TORSDOF 0
ENDMDL
MODEL 7
REMARK VINA RESULT:    -9.964      1.471      2.362
REMARK INTER + INTRA:          -9.964
REMARK INTER:                  -9.964
REMARK INTRA:                   0.000
REMARK UNBOUND:                 0.000
REMARK  Name = C[C@]12CC[C@@H]3[C@@H](CC(=O)[C@H]4CC(=O)CC[C@@]43C)[C@@H]1CCC2=O    ZINC000253504860
REMARK  2 active torsions:
REMARK  status: ('A' for Active; 'I' for Inactive)
REMARK    1  A    between atoms: C_1  and  C_2
REMARK    2  A    between atoms: C_16  and  C_17
REMARK                            x       y       z     vdW  Elec       q    Type
REMARK                         _______ _______ _______ _____ _____    ______ ____
ROOT
ATOM      1  C   UNL     1      -2.992   2.850 -22.568  0.00  0.00    +0.019 C 
ATOM      2  C   UNL     1      -1.892   2.849 -23.260  0.00  0.00    +0.029 C 
ATOM      3  C   UNL     1      -1.752   2.416 -22.042  0.00  0.00    +0.015 C 
ATOM      4  C   UNL     1      -0.584   2.031 -21.619  0.00  0.00    +0.005 C 
ATOM      5  C   UNL     1       0.443   2.079 -22.414  0.00  0.00    -0.001 C 
ATOM      6  C   UNL     1       0.303   2.512 -23.632  0.00  0.00    +0.004 C 
ATOM      7  C   UNL     1       1.330   2.560 -24.427  0.00  0.00    +0.078 C 
ATOM      8  C   UNL     1       2.498   2.176 -24.005  0.00  0.00    +0.138 C 
ATOM      9  C   UNL     1       2.638   1.743 -22.786  0.00  0.00    +0.068 C 
ATOM     10  C   UNL     1       3.806   1.358 -22.364  0.00  0.00    +0.086 C 
ATOM     11  C   UNL     1       3.946   0.926 -21.146  0.00  0.00    +0.134 C 
ATOM     12  C   UNL     1       2.919   0.877 -20.351  0.00  0.00    +0.075 C 
ATOM     13  C   UNL     1       1.751   1.262 -20.773  0.00  0.00    +0.015 C 
ATOM     14  O   UNL     1       5.114   0.541 -20.723  0.00  0.00    -0.297 OA
ATOM     15  O   UNL     1       3.526   2.224 -24.799  0.00  0.00    -0.297 OA
ATOM     16  C   UNL     1       1.611   1.695 -21.992  0.00  0.00    -0.019 C 
ATOM     17  C   UNL     1       0.583   1.647 -21.196  0.00  0.00    +0.012 C 
ATOM     18  C   UNL     1      -2.927   3.283 -23.915  0.00  0.00    +0.139 C 
ATOM     19  O   UNL     1      -4.138   3.383 -23.452  0.00  0.00    -0.297 OA
ATOM     20  C   UNL     1      -2.540   3.599 -25.115  0.00  0.00    +0.075 C 
ATOM     21  C   UNL     1      -1.266   3.361 -25.201  0.00  0.00    +0.012 C 
ATOM     22  C   UNL     1      -0.865   2.897 -24.055  0.00  0.00    +0.006 C 
ENDROOT
TORSDOF 0
ENDMDL
