MODEL 1
REMARK VINA RESULT:   -11.226      0.000      0.000
REMARK INTER + INTRA:         -12.026
REMARK INTER:                 -11.892
REMARK INTRA:                  -0.134
REMARK UNBOUND:                -0.144
REMARK  Name = COc1ccc2c3c1O[C@@H]1C=CC=C4[C@@H](C2)N(C)CC[C@]431                   ZINC000253505392
REMARK  3 active torsions:
REMARK  status: ('A' for Active; 'I' for Inactive)
REMARK    1  A    between atoms: C_1  and  O_2
REMARK    2  A    between atoms: O_2  and  C_3
REMARK    3  A    between atoms: N_17  and  C_18
REMARK                            x       y       z     vdW  Elec       q    Type
REMARK                         _______ _______ _______ _____ _____    ______ ____
ROOT
ATOM      1  C   UNL     1       0.502   2.628 -23.206  0.00  0.00    +0.162 A 
ATOM      2  C   UNL     1       0.429   2.063 -22.080  0.00  0.00    +0.050 A 
ATOM      3  C   UNL     1      -0.668   1.951 -21.499  0.00  0.00    +0.008 A 
ATOM      4  C   UNL     1      -1.702   2.401 -22.035  0.00  0.00    -0.034 A 
ATOM      5  C   UNL     1      -1.654   2.968 -23.155  0.00  0.00    +0.016 A 
ATOM      6  C   UNL     1      -2.688   3.415 -23.684  0.00  0.00    +0.071 C 
ATOM      7  C   UNL     1      -3.797   3.964 -24.386  0.00  0.00    +0.071 C 
ATOM      8  C   UNL     1      -5.049   3.852 -23.755  0.00  0.00    +0.133 C 
ATOM      9  N   UNL     1      -5.092   3.216 -22.501  0.00  0.00    +0.239 N 
ATOM     10  H   UNL     1      -5.974   3.110 -22.001  0.00  0.00    +0.204 HD
ATOM     11  C   UNL     1      -6.162   3.077 -21.875  0.00  0.00    +0.191 C 
ATOM     12  C   UNL     1      -3.859   2.740 -21.980  0.00  0.00    +0.096 C 
ATOM     13  C   UNL     1      -3.788   3.305 -23.106  0.00  0.00    -0.007 C 
ATOM     14  C   UNL     1      -4.836   3.759 -23.644  0.00  0.00    +0.006 C 
ATOM     15  C   UNL     1      -4.770   4.319 -24.756  0.00  0.00    -0.000 C 
ATOM     16  C   UNL     1      -3.665   4.436 -25.350  0.00  0.00    +0.018 C 
ATOM     17  C   UNL     1      -2.630   3.985 -24.815  0.00  0.00    +0.212 C 
ATOM     18  O   UNL     1      -1.140   3.788 -24.923  0.00  0.00    -0.480 OA
ATOM     19  C   UNL     1      -2.825   2.290 -21.446  0.00  0.00    +0.094 C 
ATOM     20  C   UNL     1      -0.547   3.082 -23.744  0.00  0.00    +0.167 A 
ENDROOT
BRANCH   1  22
ATOM     21  C   UNL     1       2.439   3.573 -23.384  0.00  0.00    +0.277 C 
ATOM     22  O   UNL     1       1.602   2.737 -23.784  0.00  0.00    -0.491 OA
ENDBRANCH   1  22
TORSDOF 1
ENDMDL
MODEL 2
REMARK VINA RESULT:   -10.708      2.118      5.339
REMARK INTER + INTRA:         -11.478
REMARK INTER:                 -11.370
REMARK INTRA:                  -0.107
REMARK UNBOUND:                -0.144
REMARK  Name = COc1ccc2c3c1O[C@@H]1C=CC=C4[C@@H](C2)N(C)CC[C@]431                   ZINC000253505392
REMARK  3 active torsions:
REMARK  status: ('A' for Active; 'I' for Inactive)
REMARK    1  A    between atoms: C_1  and  O_2
REMARK    2  A    between atoms: O_2  and  C_3
REMARK    3  A    between atoms: N_17  and  C_18
REMARK                            x       y       z     vdW  Elec       q    Type
REMARK                         _______ _______ _______ _____ _____    ______ ____
ROOT
ATOM      1  C   UNL     1      -4.755   3.640 -22.876  0.00  0.00    +0.162 A 
ATOM      2  C   UNL     1      -4.888   4.077 -24.052  0.00  0.00    +0.050 A 
ATOM      3  C   UNL     1      -3.920   4.080 -24.839  0.00  0.00    +0.008 A 
ATOM      4  C   UNL     1      -2.812   3.647 -24.459  0.00  0.00    -0.034 A 
ATOM      5  C   UNL     1      -2.656   3.208 -23.293  0.00  0.00    +0.016 A 
ATOM      6  C   UNL     1      -1.549   2.778 -22.921  0.00  0.00    +0.071 C 
ATOM      7  C   UNL     1      -0.336   2.263 -22.381  0.00  0.00    +0.071 C 
ATOM      8  C   UNL     1       0.774   2.254 -23.246  0.00  0.00    +0.133 C 
ATOM      9  N   UNL     1       0.588   2.748 -24.549  0.00  0.00    +0.239 N 
ATOM     10  H   UNL     1       1.360   2.764 -25.216  0.00  0.00    +0.204 HD
ATOM     11  C   UNL     1       1.521   2.775 -25.377  0.00  0.00    +0.191 C 
ATOM     12  C   UNL     1      -0.712   3.216 -24.880  0.00  0.00    +0.096 C 
ATOM     13  C   UNL     1      -0.577   2.779 -23.704  0.00  0.00    -0.007 C 
ATOM     14  C   UNL     1       0.545   2.343 -23.324  0.00  0.00    +0.006 C 
ATOM     15  C   UNL     1       0.682   1.910 -22.163  0.00  0.00    -0.000 C 
ATOM     16  C   UNL     1      -0.291   1.904 -21.362  0.00  0.00    +0.018 C 
ATOM     17  C   UNL     1      -1.400   2.336 -21.742  0.00  0.00    +0.212 C 
ATOM     18  O   UNL     1      -2.837   2.606 -21.378  0.00  0.00    -0.480 OA
ATOM     19  C   UNL     1      -1.820   3.648 -25.257  0.00  0.00    +0.094 C 
ATOM     20  C   UNL     1      -3.631   3.204 -22.497  0.00  0.00    +0.167 A 
ENDROOT
BRANCH   1  22
ATOM     21  C   UNL     1      -6.228   2.560 -21.721  0.00  0.00    +0.277 C 
ATOM     22  O   UNL     1      -5.726   3.639 -22.093  0.00  0.00    -0.491 OA
ENDBRANCH   1  22
TORSDOF 1
ENDMDL
MODEL 3
REMARK VINA RESULT:   -10.634      1.328      2.664
REMARK INTER + INTRA:         -11.400
REMARK INTER:                 -11.257
REMARK INTRA:                  -0.143
REMARK UNBOUND:                -0.144
REMARK  Name = COc1ccc2c3c1O[C@@H]1C=CC=C4[C@@H](C2)N(C)CC[C@]431                   ZINC000253505392
REMARK  3 active torsions:
REMARK  status: ('A' for Active; 'I' for Inactive)
REMARK    1  A    between atoms: C_1  and  O_2
REMARK    2  A    between atoms: O_2  and  C_3
REMARK    3  A    between atoms: N_17  and  C_18
REMARK                            x       y       z     vdW  Elec       q    Type
REMARK                         _______ _______ _______ _____ _____    ______ ____
ROOT
ATOM      1  C   UNL     1       0.893   2.610 -22.992  0.00  0.00    +0.162 A 
ATOM      2  C   UNL     1       1.028   2.997 -24.186  0.00  0.00    +0.050 A 
ATOM      3  C   UNL     1       0.040   3.386 -24.839  0.00  0.00    +0.008 A 
ATOM      4  C   UNL     1      -1.090   3.393 -24.309  0.00  0.00    -0.034 A 
ATOM      5  C   UNL     1      -1.249   3.013 -23.122  0.00  0.00    +0.016 A 
ATOM      6  C   UNL     1      -2.378   3.022 -22.599  0.00  0.00    +0.071 C 
ATOM      7  C   UNL     1      -3.615   2.987 -21.895  0.00  0.00    +0.071 C 
ATOM      8  C   UNL     1      -4.748   3.421 -22.608  0.00  0.00    +0.133 C 
ATOM      9  N   UNL     1      -4.559   3.845 -23.936  0.00  0.00    +0.239 N 
ATOM     10  H   UNL     1      -5.348   4.168 -24.496  0.00  0.00    +0.204 HD
ATOM     11  C   UNL     1      -5.511   4.243 -24.635  0.00  0.00    +0.191 C 
ATOM     12  C   UNL     1      -3.233   3.797 -24.443  0.00  0.00    +0.096 C 
ATOM     13  C   UNL     1      -3.370   3.411 -23.250  0.00  0.00    -0.007 C 
ATOM     14  C   UNL     1      -4.514   3.419 -22.718  0.00  0.00    +0.006 C 
ATOM     15  C   UNL     1      -4.653   3.038 -21.538  0.00  0.00    -0.000 C 
ATOM     16  C   UNL     1      -3.660   2.644 -20.871  0.00  0.00    +0.018 C 
ATOM     17  C   UNL     1      -2.529   2.637 -21.401  0.00  0.00    +0.212 C 
ATOM     18  O   UNL     1      -1.062   2.334 -21.233  0.00  0.00    -0.480 OA
ATOM     19  C   UNL     1      -2.103   3.789 -24.971  0.00  0.00    +0.094 C 
ATOM     20  C   UNL     1      -0.253   2.619 -22.460  0.00  0.00    +0.167 A 
ENDROOT
BRANCH   1  22
ATOM     21  C   UNL     1       2.230   1.024 -22.385  0.00  0.00    +0.277 C 
ATOM     22  O   UNL     1       1.884   2.222 -22.342  0.00  0.00    -0.491 OA
ENDBRANCH   1  22
TORSDOF 1
ENDMDL
MODEL 4
REMARK VINA RESULT:    -9.956      2.104      4.965
REMARK INTER + INTRA:         -10.682
REMARK INTER:                 -10.576
REMARK INTRA:                  -0.106
REMARK UNBOUND:                -0.144
REMARK  Name = COc1ccc2c3c1O[C@@H]1C=CC=C4[C@@H](C2)N(C)CC[C@]431                   ZINC000253505392
REMARK  3 active torsions:
REMARK  status: ('A' for Active; 'I' for Inactive)
REMARK    1  A    between atoms: C_1  and  O_2
REMARK    2  A    between atoms: O_2  and  C_3
REMARK    3  A    between atoms: N_17  and  C_18
REMARK                            x       y       z     vdW  Elec       q    Type
REMARK                         _______ _______ _______ _____ _____    ______ ____
ROOT
ATOM      1  C   UNL     1      -3.638   3.259 -22.651  0.00  0.00    +0.162 A 
ATOM      2  C   UNL     1      -3.567   2.635 -21.556  0.00  0.00    +0.050 A 
ATOM      3  C   UNL     1      -2.483   2.154 -21.172  0.00  0.00    +0.008 A 
ATOM      4  C   UNL     1      -1.461   2.291 -21.875  0.00  0.00    -0.034 A 
ATOM      5  C   UNL     1      -1.507   2.907 -22.969  0.00  0.00    +0.016 A 
ATOM      6  C   UNL     1      -0.484   3.040 -23.665  0.00  0.00    +0.071 C 
ATOM      7  C   UNL     1       0.613   3.256 -24.546  0.00  0.00    +0.071 C 
ATOM      8  C   UNL     1       1.851   2.724 -24.138  0.00  0.00    +0.133 C 
ATOM      9  N   UNL     1       1.892   2.036 -22.912  0.00  0.00    +0.239 N 
ATOM     10  H   UNL     1       2.763   1.632 -22.571  0.00  0.00    +0.204 HD
ATOM     11  C   UNL     1       2.948   1.535 -22.480  0.00  0.00    +0.191 C 
ATOM     12  C   UNL     1       0.672   1.938 -22.190  0.00  0.00    +0.096 C 
ATOM     13  C   UNL     1       0.603   2.561 -23.285  0.00  0.00    -0.007 C 
ATOM     14  C   UNL     1       1.639   2.696 -23.993  0.00  0.00    +0.006 C 
ATOM     15  C   UNL     1       1.575   3.311 -25.076  0.00  0.00    -0.000 C 
ATOM     16  C   UNL     1       0.483   3.800 -25.471  0.00  0.00    +0.018 C 
ATOM     17  C   UNL     1      -0.540   3.664 -24.768  0.00  0.00    +0.212 C 
ATOM     18  O   UNL     1      -2.013   3.946 -24.621  0.00  0.00    -0.480 OA
ATOM     19  C   UNL     1      -0.351   1.802 -21.488  0.00  0.00    +0.094 C 
ATOM     20  C   UNL     1      -2.600   3.394 -23.359  0.00  0.00    +0.167 A 
ENDROOT
BRANCH   1  22
ATOM     21  C   UNL     1      -5.791   3.374 -22.495  0.00  0.00    +0.277 C 
ATOM     22  O   UNL     1      -4.725   3.738 -23.032  0.00  0.00    -0.491 OA
ENDBRANCH   1  22
TORSDOF 1
ENDMDL
MODEL 5
REMARK VINA RESULT:    -9.907      1.329      2.133
REMARK INTER + INTRA:         -10.630
REMARK INTER:                 -10.496
REMARK INTRA:                  -0.134
REMARK UNBOUND:                -0.144
REMARK  Name = COc1ccc2c3c1O[C@@H]1C=CC=C4[C@@H](C2)N(C)CC[C@]431                   ZINC000253505392
REMARK  3 active torsions:
REMARK  status: ('A' for Active; 'I' for Inactive)
REMARK    1  A    between atoms: C_1  and  O_2
REMARK    2  A    between atoms: O_2  and  C_3
REMARK    3  A    between atoms: N_17  and  C_18
REMARK                            x       y       z     vdW  Elec       q    Type
REMARK                         _______ _______ _______ _____ _____    ______ ____
ROOT
ATOM      1  C   UNL     1       2.532   2.008 -23.321  0.00  0.00    +0.162 A 
ATOM      2  C   UNL     1       2.549   1.552 -22.145  0.00  0.00    +0.050 A 
ATOM      3  C   UNL     1       1.504   1.510 -21.467  0.00  0.00    +0.008 A 
ATOM      4  C   UNL     1       0.432   1.923 -21.956  0.00  0.00    -0.034 A 
ATOM      5  C   UNL     1       0.389   2.382 -23.124  0.00  0.00    +0.016 A 
ATOM      6  C   UNL     1      -0.682   2.792 -23.606  0.00  0.00    +0.071 C 
ATOM      7  C   UNL     1      -1.843   3.288 -24.263  0.00  0.00    +0.071 C 
ATOM      8  C   UNL     1      -3.039   3.254 -23.522  0.00  0.00    +0.133 C 
ATOM      9  N   UNL     1      -2.981   2.739 -22.215  0.00  0.00    +0.239 N 
ATOM     10  H   UNL     1      -3.819   2.692 -21.636  0.00  0.00    +0.204 HD
ATOM     11  C   UNL     1      -3.995   2.674 -21.493  0.00  0.00    +0.191 C 
ATOM     12  C   UNL     1      -1.712   2.296 -21.755  0.00  0.00    +0.096 C 
ATOM     13  C   UNL     1      -1.732   2.752 -22.931  0.00  0.00    -0.007 C 
ATOM     14  C   UNL     1      -2.817   3.169 -23.421  0.00  0.00    +0.006 C 
ATOM     15  C   UNL     1      -2.841   3.621 -24.583  0.00  0.00    -0.000 C 
ATOM     16  C   UNL     1      -1.789   3.666 -25.275  0.00  0.00    +0.018 C 
ATOM     17  C   UNL     1      -0.716   3.253 -24.786  0.00  0.00    +0.212 C 
ATOM     18  O   UNL     1       0.758   3.025 -24.999  0.00  0.00    -0.480 OA
ATOM     19  C   UNL     1      -0.639   1.884 -21.268  0.00  0.00    +0.094 C 
ATOM     20  C   UNL     1       1.444   2.425 -23.811  0.00  0.00    +0.167 A 
ENDROOT
BRANCH   1  22
ATOM     21  C   UNL     1       4.459   2.893 -23.736  0.00  0.00    +0.277 C 
ATOM     22  O   UNL     1       3.580   2.047 -23.995  0.00  0.00    -0.491 OA
ENDBRANCH   1  22
TORSDOF 1
ENDMDL
MODEL 6
REMARK VINA RESULT:    -9.730      2.655      6.329
REMARK INTER + INTRA:         -10.442
REMARK INTER:                 -10.308
REMARK INTRA:                  -0.135
REMARK UNBOUND:                -0.144
REMARK  Name = COc1ccc2c3c1O[C@@H]1C=CC=C4[C@@H](C2)N(C)CC[C@]431                   ZINC000253505392
REMARK  3 active torsions:
REMARK  status: ('A' for Active; 'I' for Inactive)
REMARK    1  A    between atoms: C_1  and  O_2
REMARK    2  A    between atoms: O_2  and  C_3
REMARK    3  A    between atoms: N_17  and  C_18
REMARK                            x       y       z     vdW  Elec       q    Type
REMARK                         _______ _______ _______ _____ _____    ______ ____
ROOT
ATOM      1  C   UNL     1      -1.797   3.211 -23.153  0.00  0.00    +0.162 A 
ATOM      2  C   UNL     1      -1.752   4.422 -23.507  0.00  0.00    +0.050 A 
ATOM      3  C   UNL     1      -0.658   5.014 -23.595  0.00  0.00    +0.008 A 
ATOM      4  C   UNL     1       0.399   4.405 -23.331  0.00  0.00    -0.034 A 
ATOM      5  C   UNL     1       0.379   3.201 -22.976  0.00  0.00    +0.016 A 
ATOM      6  C   UNL     1       1.436   2.599 -22.714  0.00  0.00    +0.071 C 
ATOM      7  C   UNL     1       2.574   1.809 -22.389  0.00  0.00    +0.071 C 
ATOM      8  C   UNL     1       3.823   2.451 -22.479  0.00  0.00    +0.133 C 
ATOM      9  N   UNL     1       3.835   3.800 -22.877  0.00  0.00    +0.239 N 
ATOM     10  H   UNL     1       4.713   4.311 -22.958  0.00  0.00    +0.204 HD
ATOM     11  C   UNL     1       4.899   4.441 -22.981  0.00  0.00    +0.191 C 
ATOM     12  C   UNL     1       2.576   4.399 -23.155  0.00  0.00    +0.096 C 
ATOM     13  C   UNL     1       2.533   3.188 -22.800  0.00  0.00    -0.007 C 
ATOM     14  C   UNL     1       3.604   2.577 -22.534  0.00  0.00    +0.006 C 
ATOM     15  C   UNL     1       3.566   1.381 -22.184  0.00  0.00    -0.000 C 
ATOM     16  C   UNL     1       2.465   0.774 -22.093  0.00  0.00    +0.018 C 
ATOM     17  C   UNL     1       1.407   1.383 -22.357  0.00  0.00    +0.212 C 
ATOM     18  O   UNL     1      -0.095   1.312 -22.456  0.00  0.00    -0.480 OA
ATOM     19  C   UNL     1       1.518   5.005 -23.418  0.00  0.00    +0.094 C 
ATOM     20  C   UNL     1      -0.724   2.600 -22.887  0.00  0.00    +0.167 A 
ENDROOT
BRANCH   1  22
ATOM     21  C   UNL     1      -3.655   2.856 -22.106  0.00  0.00    +0.277 C 
ATOM     22  O   UNL     1      -2.894   2.623 -23.067  0.00  0.00    -0.491 OA
ENDBRANCH   1  22
TORSDOF 1
ENDMDL
MODEL 7
REMARK VINA RESULT:    -9.442      2.426      4.263
REMARK INTER + INTRA:         -10.138
REMARK INTER:                 -10.006
REMARK INTRA:                  -0.132
REMARK UNBOUND:                -0.144
REMARK  Name = COc1ccc2c3c1O[C@@H]1C=CC=C4[C@@H](C2)N(C)CC[C@]431                   ZINC000253505392
REMARK  3 active torsions:
REMARK  status: ('A' for Active; 'I' for Inactive)
REMARK    1  A    between atoms: C_1  and  O_2
REMARK    2  A    between atoms: O_2  and  C_3
REMARK    3  A    between atoms: N_17  and  C_18
REMARK                            x       y       z     vdW  Elec       q    Type
REMARK                         _______ _______ _______ _____ _____    ______ ____
ROOT
ATOM      1  C   UNL     1       3.568   1.926 -21.961  0.00  0.00    +0.162 A 
ATOM      2  C   UNL     1       4.069   2.349 -23.039  0.00  0.00    +0.050 A 
ATOM      3  C   UNL     1       3.334   2.744 -23.966  0.00  0.00    +0.008 A 
ATOM      4  C   UNL     1       2.094   2.720 -23.825  0.00  0.00    -0.034 A 
ATOM      5  C   UNL     1       1.572   2.303 -22.762  0.00  0.00    +0.016 A 
ATOM      6  C   UNL     1       0.335   2.282 -22.628  0.00  0.00    +0.071 C 
ATOM      7  C   UNL     1      -1.061   2.209 -22.359  0.00  0.00    +0.071 C 
ATOM      8  C   UNL     1      -1.915   2.648 -23.386  0.00  0.00    +0.133 C 
ATOM      9  N   UNL     1      -1.321   3.113 -24.573  0.00  0.00    +0.239 N 
ATOM     10  H   UNL     1      -1.896   3.443 -25.349  0.00  0.00    +0.204 HD
ATOM     11  C   UNL     1      -2.008   3.520 -25.531  0.00  0.00    +0.191 C 
ATOM     12  C   UNL     1       0.098   3.099 -24.630  0.00  0.00    +0.096 C 
ATOM     13  C   UNL     1      -0.405   2.676 -23.553  0.00  0.00    -0.007 C 
ATOM     14  C   UNL     1      -1.659   2.653 -23.415  0.00  0.00    +0.006 C 
ATOM     15  C   UNL     1      -2.160   2.236 -22.352  0.00  0.00    -0.000 C 
ATOM     16  C   UNL     1      -1.424   1.835 -21.411  0.00  0.00    +0.018 C 
ATOM     17  C   UNL     1      -0.183   1.859 -21.551  0.00  0.00    +0.212 C 
ATOM     18  O   UNL     1       1.159   1.571 -20.929  0.00  0.00    -0.480 OA
ATOM     19  C   UNL     1       1.338   3.122 -24.768  0.00  0.00    +0.094 C 
ATOM     20  C   UNL     1       2.312   1.904 -21.825  0.00  0.00    +0.167 A 
ENDROOT
BRANCH   1  22
ATOM     21  C   UNL     1       4.410   0.312 -20.795  0.00  0.00    +0.277 C 
ATOM     22  O   UNL     1       4.307   1.532 -21.037  0.00  0.00    -0.491 OA
ENDBRANCH   1  22
TORSDOF 1
ENDMDL
MODEL 8
REMARK VINA RESULT:    -9.424      2.303      5.682
REMARK INTER + INTRA:         -10.118
REMARK INTER:                 -10.002
REMARK INTRA:                  -0.117
REMARK UNBOUND:                -0.144
REMARK  Name = COc1ccc2c3c1O[C@@H]1C=CC=C4[C@@H](C2)N(C)CC[C@]431                   ZINC000253505392
REMARK  3 active torsions:
REMARK  status: ('A' for Active; 'I' for Inactive)
REMARK    1  A    between atoms: C_1  and  O_2
REMARK    2  A    between atoms: O_2  and  C_3
REMARK    3  A    between atoms: N_17  and  C_18
REMARK                            x       y       z     vdW  Elec       q    Type
REMARK                         _______ _______ _______ _____ _____    ______ ____
ROOT
ATOM      1  C   UNL     1      -1.929   4.017 -23.501  0.00  0.00    +0.162 A 
ATOM      2  C   UNL     1      -2.502   3.111 -22.835  0.00  0.00    +0.050 A 
ATOM      3  C   UNL     1      -1.831   2.270 -22.205  0.00  0.00    +0.008 A 
ATOM      4  C   UNL     1      -0.584   2.324 -22.234  0.00  0.00    -0.034 A 
ATOM      5  C   UNL     1       0.008   3.216 -22.890  0.00  0.00    +0.016 A 
ATOM      6  C   UNL     1       1.252   3.264 -22.915  0.00  0.00    +0.071 C 
ATOM      7  C   UNL     1       2.662   3.422 -23.020  0.00  0.00    +0.071 C 
ATOM      8  C   UNL     1       3.445   2.486 -22.319  0.00  0.00    +0.133 C 
ATOM      9  N   UNL     1       2.772   1.492 -21.587  0.00  0.00    +0.239 N 
ATOM     10  H   UNL     1       3.293   0.790 -21.061  0.00  0.00    +0.204 HD
ATOM     11  C   UNL     1       3.393   0.626 -20.939  0.00  0.00    +0.191 C 
ATOM     12  C   UNL     1       1.352   1.520 -21.620  0.00  0.00    +0.096 C 
ATOM     13  C   UNL     1       1.927   2.424 -22.286  0.00  0.00    -0.007 C 
ATOM     14  C   UNL     1       3.188   2.475 -22.313  0.00  0.00    +0.006 C 
ATOM     15  C   UNL     1       3.759   3.368 -22.970  0.00  0.00    -0.000 C 
ATOM     16  C   UNL     1       3.089   4.222 -23.609  0.00  0.00    +0.018 C 
ATOM     17  C   UNL     1       1.841   4.168 -23.581  0.00  0.00    +0.212 C 
ATOM     18  O   UNL     1       0.544   4.779 -24.045  0.00  0.00    -0.480 OA
ATOM     19  C   UNL     1       0.106   1.468 -21.593  0.00  0.00    +0.094 C 
ATOM     20  C   UNL     1      -0.666   4.067 -23.527  0.00  0.00    +0.167 A 
ENDROOT
BRANCH   1  22
ATOM     21  C   UNL     1      -3.544   4.482 -24.860  0.00  0.00    +0.277 C 
ATOM     22  O   UNL     1      -2.604   4.856 -24.130  0.00  0.00    -0.491 OA
ENDBRANCH   1  22
TORSDOF 1
ENDMDL
MODEL 9
REMARK VINA RESULT:    -8.347      2.321      3.576
REMARK INTER + INTRA:          -8.979
REMARK INTER:                  -8.835
REMARK INTRA:                  -0.144
REMARK UNBOUND:                -0.144
REMARK  Name = COc1ccc2c3c1O[C@@H]1C=CC=C4[C@@H](C2)N(C)CC[C@]431                   ZINC000253505392
REMARK  3 active torsions:
REMARK  status: ('A' for Active; 'I' for Inactive)
REMARK    1  A    between atoms: C_1  and  O_2
REMARK    2  A    between atoms: O_2  and  C_3
REMARK    3  A    between atoms: N_17  and  C_18
REMARK                            x       y       z     vdW  Elec       q    Type
REMARK                         _______ _______ _______ _____ _____    ______ ____
ROOT
ATOM      1  C   UNL     1       2.502   3.257 -24.019  0.00  0.00    +0.162 A 
ATOM      2  C   UNL     1       2.340   4.474 -24.309  0.00  0.00    +0.050 A 
ATOM      3  C   UNL     1       1.302   5.073 -23.964  0.00  0.00    +0.008 A 
ATOM      4  C   UNL     1       0.417   4.464 -23.329  0.00  0.00    -0.034 A 
ATOM      5  C   UNL     1       0.555   3.252 -23.030  0.00  0.00    +0.016 A 
ATOM      6  C   UNL     1      -0.331   2.650 -22.397  0.00  0.00    +0.071 C 
ATOM      7  C   UNL     1      -1.270   1.857 -21.679  0.00  0.00    +0.071 C 
ATOM      8  C   UNL     1      -2.452   2.507 -21.277  0.00  0.00    +0.133 C 
ATOM      9  N   UNL     1      -2.597   3.864 -21.617  0.00  0.00    +0.239 N 
ATOM     10  H   UNL     1      -3.435   4.381 -21.350  0.00  0.00    +0.204 HD
ATOM     11  C   UNL     1      -3.614   4.512 -21.298  0.00  0.00    +0.191 C 
ATOM     12  C   UNL     1      -1.531   4.463 -22.340  0.00  0.00    +0.096 C 
ATOM     13  C   UNL     1      -1.371   3.245 -22.050  0.00  0.00    -0.007 C 
ATOM     14  C   UNL     1      -2.269   2.633 -21.408  0.00  0.00    +0.006 C 
ATOM     15  C   UNL     1      -2.115   1.430 -21.120  0.00  0.00    -0.000 C 
ATOM     16  C   UNL     1      -1.069   0.817 -21.464  0.00  0.00    +0.018 C 
ATOM     17  C   UNL     1      -0.183   1.426 -22.099  0.00  0.00    +0.212 C 
ATOM     18  O   UNL     1       1.169   1.350 -22.762  0.00  0.00    -0.480 OA
ATOM     19  C   UNL     1      -0.645   5.070 -22.975  0.00  0.00    +0.094 C 
ATOM     20  C   UNL     1       1.603   2.645 -23.376  0.00  0.00    +0.167 A 
ENDROOT
BRANCH   1  22
ATOM     21  C   UNL     1       4.527   2.627 -23.601  0.00  0.00    +0.277 C 
ATOM     22  O   UNL     1       3.542   2.662 -24.366  0.00  0.00    -0.491 OA
ENDBRANCH   1  22
TORSDOF 1
ENDMDL
