MODEL 1
REMARK VINA RESULT:   -11.108      0.000      0.000
REMARK INTER + INTRA:         -11.757
REMARK INTER:                 -11.757
REMARK INTRA:                   0.000
REMARK UNBOUND:                 0.000
REMARK  Name = ZINC000004946195
REMARK  3 active torsions:
REMARK  status: ('A' for Active; 'I' for Inactive)
REMARK    1  A    between atoms: C_1  and  C_2
REMARK    2  A    between atoms: C_10  and  O_11
REMARK    3  A    between atoms: C_21  and  O_22
REMARK                            x       y       z     vdW  Elec       q    Type
REMARK                         _______ _______ _______ _____ _____    ______ ____
ROOT
ATOM      1  C   UNL     1       2.761   2.340 -24.781  0.00  0.00    +0.014 C 
ATOM      2  C   UNL     1       2.027   2.075 -23.740  0.00  0.00    -0.003 C 
ATOM      3  C   UNL     1       1.389   2.678 -24.699  0.00  0.00    +0.010 C 
ATOM      4  C   UNL     1       0.127   2.961 -24.561  0.00  0.00    +0.009 C 
ATOM      5  C   UNL     1      -0.496   2.641 -23.466  0.00  0.00    +0.023 C 
ATOM      6  C   UNL     1      -1.757   2.923 -23.328  0.00  0.00    -0.039 A 
ATOM      7  C   UNL     1      -2.396   3.527 -24.287  0.00  0.00    +0.023 A 
ATOM      8  C   UNL     1      -3.658   3.810 -24.149  0.00  0.00    +0.061 A 
ATOM      9  C   UNL     1      -4.280   3.489 -23.054  0.00  0.00    +0.145 A 
ATOM     10  C   UNL     1      -3.641   2.885 -22.096  0.00  0.00    +0.064 A 
ATOM     11 BR   UNL     1      -4.264   2.565 -21.001  0.00  0.00    -0.046 Br
ATOM     12 BR   UNL     1      -4.296   4.413 -25.107  0.00  0.00    -0.046 Br
ATOM     13  C   UNL     1      -2.380   2.602 -22.233  0.00  0.00    -0.026 A 
ATOM     14  C   UNL     1      -1.741   1.999 -21.275  0.00  0.00    +0.037 C 
ATOM     15  C   UNL     1      -0.479   1.716 -21.413  0.00  0.00    +0.009 C 
ATOM     16  C   UNL     1       0.143   2.037 -22.508  0.00  0.00    +0.000 C 
ATOM     17  C   UNL     1       3.263   1.687 -23.629  0.00  0.00    +0.121 C 
ATOM     18  C   UNL     1       3.404   1.127 -22.464  0.00  0.00    +0.032 C 
ATOM     19  C   UNL     1       2.255   1.168 -21.857  0.00  0.00    +0.007 C 
ATOM     20  C   UNL     1       1.404   1.754 -22.645  0.00  0.00    +0.001 C 
ENDROOT
BRANCH   9  21
ATOM     21  O   UNL     1      -5.542   3.772 -22.916  0.00  0.00    -0.505 OA
ATOM     22  H   UNL     1      -5.805   4.471 -22.351  0.00  0.00    +0.292 HD
ENDBRANCH   9  21
BRANCH  17  23
ATOM     23  O   UNL     1       4.194   1.834 -24.524  0.00  0.00    -0.391 OA
ATOM     24  H   UNL     1       3.816   1.702 -25.408  0.00  0.00    +0.210 HD
ENDBRANCH  17  23
TORSDOF 2
ENDMDL
MODEL 2
REMARK VINA RESULT:   -11.060      0.806      2.598
REMARK INTER + INTRA:         -11.707
REMARK INTER:                 -11.707
REMARK INTRA:                   0.000
REMARK UNBOUND:                 0.000
REMARK  Name = ZINC000004946195
REMARK  3 active torsions:
REMARK  status: ('A' for Active; 'I' for Inactive)
REMARK    1  A    between atoms: C_1  and  C_2
REMARK    2  A    between atoms: C_10  and  O_11
REMARK    3  A    between atoms: C_21  and  O_22
REMARK                            x       y       z     vdW  Elec       q    Type
REMARK                         _______ _______ _______ _____ _____    ______ ____
ROOT
ATOM      1  C   UNL     1       2.378   1.141 -21.731  0.00  0.00    +0.014 C 
ATOM      2  C   UNL     1       1.810   1.756 -22.726  0.00  0.00    -0.003 C 
ATOM      3  C   UNL     1       1.007   1.495 -21.738  0.00  0.00    +0.010 C 
ATOM      4  C   UNL     1      -0.243   1.847 -21.807  0.00  0.00    +0.009 C 
ATOM      5  C   UNL     1      -0.689   2.460 -22.863  0.00  0.00    +0.023 C 
ATOM      6  C   UNL     1      -1.939   2.812 -22.932  0.00  0.00    -0.039 A 
ATOM      7  C   UNL     1      -2.742   2.550 -21.944  0.00  0.00    +0.023 A 
ATOM      8  C   UNL     1      -3.992   2.902 -22.013  0.00  0.00    +0.061 A 
ATOM      9  C   UNL     1      -4.438   3.516 -23.069  0.00  0.00    +0.145 A 
ATOM     10  C   UNL     1      -3.633   3.777 -24.056  0.00  0.00    +0.064 A 
ATOM     11 BR   UNL     1      -4.079   4.390 -25.112  0.00  0.00    -0.046 Br
ATOM     12 BR   UNL     1      -4.796   2.641 -21.025  0.00  0.00    -0.046 Br
ATOM     13  C   UNL     1      -2.384   3.425 -23.988  0.00  0.00    -0.026 A 
ATOM     14  C   UNL     1      -1.580   3.687 -24.976  0.00  0.00    +0.037 C 
ATOM     15  C   UNL     1      -0.330   3.334 -24.907  0.00  0.00    +0.009 C 
ATOM     16  C   UNL     1       0.116   2.721 -23.851  0.00  0.00    +0.000 C 
ATOM     17  C   UNL     1       3.075   1.517 -22.904  0.00  0.00    +0.121 C 
ATOM     18  C   UNL     1       3.412   1.983 -24.071  0.00  0.00    +0.032 C 
ATOM     19  C   UNL     1       2.355   2.509 -24.613  0.00  0.00    +0.007 C 
ATOM     20  C   UNL     1       1.365   2.370 -23.782  0.00  0.00    +0.001 C 
ENDROOT
BRANCH   9  21
ATOM     21  O   UNL     1      -5.687   3.868 -23.138  0.00  0.00    -0.505 OA
ATOM     22  H   UNL     1      -6.086   4.018 -23.972  0.00  0.00    +0.292 HD
ENDBRANCH   9  21
BRANCH  17  23
ATOM     23  O   UNL     1       3.866   0.918 -22.064  0.00  0.00    -0.391 OA
ATOM     24  H   UNL     1       3.497   0.985 -21.169  0.00  0.00    +0.210 HD
ENDBRANCH  17  23
TORSDOF 2
ENDMDL
MODEL 3
REMARK VINA RESULT:   -11.045      2.226      6.516
REMARK INTER + INTRA:         -11.690
REMARK INTER:                 -11.690
REMARK INTRA:                   0.000
REMARK UNBOUND:                 0.000
REMARK  Name = ZINC000004946195
REMARK  3 active torsions:
REMARK  status: ('A' for Active; 'I' for Inactive)
REMARK    1  A    between atoms: C_1  and  C_2
REMARK    2  A    between atoms: C_10  and  O_11
REMARK    3  A    between atoms: C_21  and  O_22
REMARK                            x       y       z     vdW  Elec       q    Type
REMARK                         _______ _______ _______ _____ _____    ______ ____
ROOT
ATOM      1  C   UNL     1      -4.853   2.867 -21.449  0.00  0.00    +0.014 C 
ATOM      2  C   UNL     1      -4.110   3.113 -22.488  0.00  0.00    -0.003 C 
ATOM      3  C   UNL     1      -3.461   2.607 -21.482  0.00  0.00    +0.010 C 
ATOM      4  C   UNL     1      -2.182   2.392 -21.576  0.00  0.00    +0.009 C 
ATOM      5  C   UNL     1      -1.553   2.683 -22.676  0.00  0.00    +0.023 C 
ATOM      6  C   UNL     1      -0.274   2.468 -22.770  0.00  0.00    -0.039 A 
ATOM      7  C   UNL     1       0.375   1.963 -21.764  0.00  0.00    +0.023 A 
ATOM      8  C   UNL     1       1.655   1.748 -21.858  0.00  0.00    +0.061 A 
ATOM      9  C   UNL     1       2.283   2.038 -22.958  0.00  0.00    +0.145 A 
ATOM     10  C   UNL     1       1.633   2.544 -23.964  0.00  0.00    +0.064 A 
ATOM     11 BR   UNL     1       2.262   2.835 -25.064  0.00  0.00    -0.046 Br
ATOM     12 BR   UNL     1       2.304   1.242 -20.852  0.00  0.00    -0.046 Br
ATOM     13  C   UNL     1       0.355   2.759 -23.870  0.00  0.00    -0.026 A 
ATOM     14  C   UNL     1      -0.296   3.265 -24.876  0.00  0.00    +0.037 C 
ATOM     15  C   UNL     1      -1.574   3.479 -24.782  0.00  0.00    +0.009 C 
ATOM     16  C   UNL     1      -2.203   3.188 -23.682  0.00  0.00    +0.000 C 
ATOM     17  C   UNL     1      -5.363   3.418 -22.649  0.00  0.00    +0.121 C 
ATOM     18  C   UNL     1      -5.509   3.898 -23.849  0.00  0.00    +0.032 C 
ATOM     19  C   UNL     1      -4.346   3.888 -24.428  0.00  0.00    +0.007 C 
ATOM     20  C   UNL     1      -3.481   3.403 -23.588  0.00  0.00    +0.001 C 
ENDROOT
BRANCH   9  21
ATOM     21  O   UNL     1       3.562   1.824 -23.052  0.00  0.00    -0.505 OA
ATOM     22  H   UNL     1       3.884   1.169 -23.639  0.00  0.00    +0.292 HD
ENDBRANCH   9  21
BRANCH  17  23
ATOM     23  O   UNL     1      -6.305   3.270 -21.766  0.00  0.00    -0.391 OA
ATOM     24  H   UNL     1      -7.165   3.463 -22.174  0.00  0.00    +0.210 HD
ENDBRANCH  17  23
TORSDOF 2
ENDMDL
MODEL 4
REMARK VINA RESULT:   -10.744      2.426      5.862
REMARK INTER + INTRA:         -11.372
REMARK INTER:                 -11.372
REMARK INTRA:                   0.000
REMARK UNBOUND:                 0.000
REMARK  Name = ZINC000004946195
REMARK  3 active torsions:
REMARK  status: ('A' for Active; 'I' for Inactive)
REMARK    1  A    between atoms: C_1  and  C_2
REMARK    2  A    between atoms: C_10  and  O_11
REMARK    3  A    between atoms: C_21  and  O_22
REMARK                            x       y       z     vdW  Elec       q    Type
REMARK                         _______ _______ _______ _____ _____    ______ ____
ROOT
ATOM      1  C   UNL     1      -3.686   4.080 -25.778  0.00  0.00    +0.014 C 
ATOM      2  C   UNL     1      -3.425   3.669 -24.572  0.00  0.00    -0.003 C 
ATOM      3  C   UNL     1      -2.394   3.678 -25.364  0.00  0.00    +0.010 C 
ATOM      4  C   UNL     1      -1.232   3.296 -24.921  0.00  0.00    +0.009 C 
ATOM      5  C   UNL     1      -1.102   2.906 -23.688  0.00  0.00    +0.023 C 
ATOM      6  C   UNL     1       0.059   2.524 -23.245  0.00  0.00    -0.039 A 
ATOM      7  C   UNL     1       1.090   2.532 -24.037  0.00  0.00    +0.023 A 
ATOM      8  C   UNL     1       2.252   2.150 -23.594  0.00  0.00    +0.061 A 
ATOM      9  C   UNL     1       2.382   1.760 -22.361  0.00  0.00    +0.145 A 
ATOM     10  C   UNL     1       1.349   1.752 -21.570  0.00  0.00    +0.064 A 
ATOM     11 BR   UNL     1       1.479   1.361 -20.337  0.00  0.00    -0.046 Br
ATOM     12 BR   UNL     1       3.284   2.158 -24.384  0.00  0.00    -0.046 Br
ATOM     13  C   UNL     1       0.189   2.133 -22.012  0.00  0.00    -0.026 A 
ATOM     14  C   UNL     1      -0.844   2.125 -21.221  0.00  0.00    +0.037 C 
ATOM     15  C   UNL     1      -2.005   2.507 -21.664  0.00  0.00    +0.009 C 
ATOM     16  C   UNL     1      -2.134   2.897 -22.897  0.00  0.00    +0.000 C 
ATOM     17  C   UNL     1      -4.669   3.995 -24.762  0.00  0.00    +0.121 C 
ATOM     18  C   UNL     1      -5.308   3.806 -23.646  0.00  0.00    +0.032 C 
ATOM     19  C   UNL     1      -4.459   3.364 -22.767  0.00  0.00    +0.007 C 
ATOM     20  C   UNL     1      -3.295   3.279 -23.339  0.00  0.00    +0.001 C 
ENDROOT
BRANCH   9  21
ATOM     21  O   UNL     1       3.543   1.378 -21.918  0.00  0.00    -0.505 OA
ATOM     22  H   UNL     1       3.630   1.075 -21.036  0.00  0.00    +0.292 HD
ENDBRANCH   9  21
BRANCH  17  23
ATOM     23  O   UNL     1      -5.183   4.433 -25.873  0.00  0.00    -0.391 OA
ATOM     24  H   UNL     1      -6.023   3.977 -26.042  0.00  0.00    +0.210 HD
ENDBRANCH  17  23
TORSDOF 2
ENDMDL
MODEL 5
REMARK VINA RESULT:   -10.087      3.151      6.718
REMARK INTER + INTRA:         -10.677
REMARK INTER:                 -10.677
REMARK INTRA:                   0.000
REMARK UNBOUND:                 0.000
REMARK  Name = ZINC000004946195
REMARK  3 active torsions:
REMARK  status: ('A' for Active; 'I' for Inactive)
REMARK    1  A    between atoms: C_1  and  C_2
REMARK    2  A    between atoms: C_10  and  O_11
REMARK    3  A    between atoms: C_21  and  O_22
REMARK                            x       y       z     vdW  Elec       q    Type
REMARK                         _______ _______ _______ _____ _____    ______ ____
ROOT
ATOM      1  C   UNL     1      -2.452   2.117 -21.752  0.00  0.00    +0.014 C 
ATOM      2  C   UNL     1      -1.548   2.781 -22.411  0.00  0.00    -0.003 C 
ATOM      3  C   UNL     1      -1.066   1.858 -21.632  0.00  0.00    +0.010 C 
ATOM      4  C   UNL     1       0.220   1.670 -21.567  0.00  0.00    +0.009 C 
ATOM      5  C   UNL     1       1.021   2.405 -22.279  0.00  0.00    +0.023 C 
ATOM      6  C   UNL     1       2.306   2.217 -22.214  0.00  0.00    -0.039 A 
ATOM      7  C   UNL     1       2.789   1.294 -21.436  0.00  0.00    +0.023 A 
ATOM      8  C   UNL     1       4.074   1.106 -21.370  0.00  0.00    +0.061 A 
ATOM      9  C   UNL     1       4.876   1.841 -22.083  0.00  0.00    +0.145 A 
ATOM     10  C   UNL     1       4.392   2.763 -22.861  0.00  0.00    +0.064 A 
ATOM     11 BR   UNL     1       5.193   3.498 -23.574  0.00  0.00    -0.046 Br
ATOM     12 BR   UNL     1       4.557   0.184 -20.593  0.00  0.00    -0.046 Br
ATOM     13  C   UNL     1       3.108   2.952 -22.927  0.00  0.00    -0.026 A 
ATOM     14  C   UNL     1       2.624   3.874 -23.705  0.00  0.00    +0.037 C 
ATOM     15  C   UNL     1       1.339   4.062 -23.770  0.00  0.00    +0.009 C 
ATOM     16  C   UNL     1       0.538   3.327 -23.058  0.00  0.00    +0.000 C 
ATOM     17  C   UNL     1      -2.766   3.163 -22.653  0.00  0.00    +0.121 C 
ATOM     18  C   UNL     1      -2.718   4.135 -23.516  0.00  0.00    +0.032 C 
ATOM     19  C   UNL     1      -1.470   4.352 -23.806  0.00  0.00    +0.007 C 
ATOM     20  C   UNL     1      -0.746   3.516 -23.123  0.00  0.00    +0.001 C 
ENDROOT
BRANCH   9  21
ATOM     21  O   UNL     1       6.160   1.653 -22.018  0.00  0.00    -0.505 OA
ATOM     22  H   UNL     1       6.745   2.306 -22.347  0.00  0.00    +0.292 HD
ENDBRANCH   9  21
BRANCH  17  23
ATOM     23  O   UNL     1      -3.844   2.663 -22.126  0.00  0.00    -0.391 OA
ATOM     24  H   UNL     1      -4.008   1.783 -22.500  0.00  0.00    +0.210 HD
ENDBRANCH  17  23
TORSDOF 2
ENDMDL
MODEL 6
REMARK VINA RESULT:    -9.620      3.085      6.144
REMARK INTER + INTRA:         -10.183
REMARK INTER:                 -10.183
REMARK INTRA:                   0.000
REMARK UNBOUND:                 0.000
REMARK  Name = ZINC000004946195
REMARK  3 active torsions:
REMARK  status: ('A' for Active; 'I' for Inactive)
REMARK    1  A    between atoms: C_1  and  C_2
REMARK    2  A    between atoms: C_10  and  O_11
REMARK    3  A    between atoms: C_21  and  O_22
REMARK                            x       y       z     vdW  Elec       q    Type
REMARK                         _______ _______ _______ _____ _____    ______ ____
ROOT
ATOM      1  C   UNL     1      -1.884   4.599 -24.355  0.00  0.00    +0.014 C 
ATOM      2  C   UNL     1      -1.510   3.695 -23.497  0.00  0.00    -0.003 C 
ATOM      3  C   UNL     1      -0.525   4.302 -24.090  0.00  0.00    +0.010 C 
ATOM      4  C   UNL     1       0.703   3.982 -23.802  0.00  0.00    +0.009 C 
ATOM      5  C   UNL     1       0.944   3.056 -22.922  0.00  0.00    +0.023 C 
ATOM      6  C   UNL     1       2.170   2.736 -22.634  0.00  0.00    -0.039 A 
ATOM      7  C   UNL     1       3.156   3.343 -23.227  0.00  0.00    +0.023 A 
ATOM      8  C   UNL     1       4.383   3.023 -22.939  0.00  0.00    +0.061 A 
ATOM      9  C   UNL     1       4.624   2.097 -22.058  0.00  0.00    +0.145 A 
ATOM     10  C   UNL     1       3.638   1.491 -21.466  0.00  0.00    +0.064 A 
ATOM     11 BR   UNL     1       3.879   0.565 -20.586  0.00  0.00    -0.046 Br
ATOM     12 BR   UNL     1       5.369   3.629 -23.531  0.00  0.00    -0.046 Br
ATOM     13  C   UNL     1       2.411   1.810 -21.754  0.00  0.00    -0.026 A 
ATOM     14  C   UNL     1       1.425   1.204 -21.162  0.00  0.00    +0.037 C 
ATOM     15  C   UNL     1       0.198   1.524 -21.450  0.00  0.00    +0.009 C 
ATOM     16  C   UNL     1      -0.043   2.450 -22.330  0.00  0.00    +0.000 C 
ATOM     17  C   UNL     1      -2.799   3.824 -23.603  0.00  0.00    +0.121 C 
ATOM     18  C   UNL     1      -3.355   2.978 -22.787  0.00  0.00    +0.032 C 
ATOM     19  C   UNL     1      -2.409   2.326 -22.179  0.00  0.00    +0.007 C 
ATOM     20  C   UNL     1      -1.269   2.769 -22.617  0.00  0.00    +0.001 C 
ENDROOT
BRANCH   9  21
ATOM     21  O   UNL     1       5.851   1.777 -21.770  0.00  0.00    -0.505 OA
ATOM     22  H   UNL     1       6.431   1.493 -22.448  0.00  0.00    +0.292 HD
ENDBRANCH   9  21
BRANCH  17  23
ATOM     23  O   UNL     1      -3.423   4.653 -24.385  0.00  0.00    -0.391 OA
ATOM     24  H   UNL     1      -2.803   5.331 -24.699  0.00  0.00    +0.210 HD
ENDBRANCH  17  23
TORSDOF 2
ENDMDL
