MODEL 1
REMARK VINA RESULT:   -11.798      0.000      0.000
REMARK INTER + INTRA:         -12.142
REMARK INTER:                 -12.142
REMARK INTRA:                   0.000
REMARK UNBOUND:                 0.000
REMARK  Name = ZINC000006482659
REMARK  3 active torsions:
REMARK  status: ('A' for Active; 'I' for Inactive)
REMARK    1  A    between atoms: C_1  and  C_2
REMARK    2  A    between atoms: C_15  and  C_16
REMARK    3  A    between atoms: C_20  and  O_21
REMARK                            x       y       z     vdW  Elec       q    Type
REMARK                         _______ _______ _______ _____ _____    ______ ____
ROOT
ATOM      1  C   UNL     1      -4.907   3.108 -21.934  0.00  0.00    +0.014 C 
ATOM      2  C   UNL     1      -3.985   3.291 -22.832  0.00  0.00    -0.003 C 
ATOM      3  C   UNL     1      -3.558   2.721 -21.744  0.00  0.00    +0.010 C 
ATOM      4  C   UNL     1      -2.306   2.390 -21.632  0.00  0.00    +0.005 C 
ATOM      5  C   UNL     1      -1.481   2.629 -22.608  0.00  0.00    +0.002 C 
ATOM      6  C   UNL     1      -1.908   3.199 -23.695  0.00  0.00    -0.003 C 
ATOM      7  C   UNL     1      -1.083   3.438 -24.671  0.00  0.00    +0.008 C 
ATOM      8  C   UNL     1       0.170   3.107 -24.559  0.00  0.00    +0.032 C 
ATOM      9  C   UNL     1       0.597   2.537 -23.471  0.00  0.00    -0.060 C 
ATOM     10  C   UNL     1       1.849   2.206 -23.359  0.00  0.00    +0.046 C 
ATOM     11  C   UNL     1       2.275   1.637 -22.272  0.00  0.00    +0.156 C 
ATOM     12  C   UNL     1       1.450   1.398 -21.296  0.00  0.00    +0.080 C 
ATOM     13  C   UNL     1       0.198   1.728 -21.408  0.00  0.00    +0.019 C 
ATOM     14  O   UNL     1       3.528   1.306 -22.159  0.00  0.00    -0.293 OA
ATOM     15  C   UNL     1      -0.229   2.299 -22.496  0.00  0.00    -0.007 C 
ATOM     16  C   UNL     1      -1.054   2.060 -21.520  0.00  0.00    +0.016 C 
ATOM     17  C   UNL     1      -5.162   3.712 -23.189  0.00  0.00    +0.121 C 
ATOM     18  C   UNL     1      -5.064   4.211 -24.386  0.00  0.00    +0.032 C 
ATOM     19  C   UNL     1      -3.827   4.098 -24.768  0.00  0.00    +0.007 C 
ATOM     20  C   UNL     1      -3.160   3.530 -23.808  0.00  0.00    +0.001 C 
ENDROOT
BRANCH  17  21
ATOM     21  O   UNL     1      -6.247   3.646 -22.476  0.00  0.00    -0.391 OA
ATOM     22  H   UNL     1      -6.014   3.591 -21.536  0.00  0.00    +0.210 HD
ENDBRANCH  17  21
TORSDOF 1
ENDMDL
MODEL 2
REMARK VINA RESULT:   -11.647      0.865      2.487
REMARK INTER + INTRA:         -11.987
REMARK INTER:                 -11.987
REMARK INTRA:                   0.000
REMARK UNBOUND:                 0.000
REMARK  Name = ZINC000006482659
REMARK  3 active torsions:
REMARK  status: ('A' for Active; 'I' for Inactive)
REMARK    1  A    between atoms: C_1  and  C_2
REMARK    2  A    between atoms: C_15  and  C_16
REMARK    3  A    between atoms: C_20  and  O_21
REMARK                            x       y       z     vdW  Elec       q    Type
REMARK                         _______ _______ _______ _____ _____    ______ ____
ROOT
ATOM      1  C   UNL     1      -4.622   3.864 -23.851  0.00  0.00    +0.014 C 
ATOM      2  C   UNL     1      -3.791   3.294 -23.031  0.00  0.00    -0.003 C 
ATOM      3  C   UNL     1      -3.251   3.677 -24.150  0.00  0.00    +0.010 C 
ATOM      4  C   UNL     1      -1.984   3.475 -24.363  0.00  0.00    +0.005 C 
ATOM      5  C   UNL     1      -1.258   2.890 -23.457  0.00  0.00    +0.002 C 
ATOM      6  C   UNL     1      -1.798   2.507 -22.339  0.00  0.00    -0.003 C 
ATOM      7  C   UNL     1      -1.072   1.922 -21.433  0.00  0.00    +0.008 C 
ATOM      8  C   UNL     1       0.195   1.720 -21.646  0.00  0.00    +0.032 C 
ATOM      9  C   UNL     1       0.735   2.103 -22.765  0.00  0.00    -0.060 C 
ATOM     10  C   UNL     1       2.001   1.900 -22.978  0.00  0.00    +0.046 C 
ATOM     11  C   UNL     1       2.541   2.283 -24.096  0.00  0.00    +0.156 C 
ATOM     12  C   UNL     1       1.815   2.868 -25.002  0.00  0.00    +0.080 C 
ATOM     13  C   UNL     1       0.549   3.070 -24.790  0.00  0.00    +0.019 C 
ATOM     14  O   UNL     1       3.807   2.081 -24.310  0.00  0.00    -0.293 OA
ATOM     15  C   UNL     1       0.008   2.687 -23.670  0.00  0.00    -0.007 C 
ATOM     16  C   UNL     1      -0.718   3.272 -24.576  0.00  0.00    +0.016 C 
ATOM     17  C   UNL     1      -5.007   3.375 -22.579  0.00  0.00    +0.121 C 
ATOM     18  C   UNL     1      -5.033   2.840 -21.395  0.00  0.00    +0.032 C 
ATOM     19  C   UNL     1      -3.832   2.429 -21.114  0.00  0.00    +0.007 C 
ATOM     20  C   UNL     1      -3.065   2.709 -22.125  0.00  0.00    +0.001 C 
ENDROOT
BRANCH  17  21
ATOM     21  O   UNL     1      -6.021   3.899 -23.203  0.00  0.00    -0.391 OA
ATOM     22  H   UNL     1      -6.690   4.175 -22.558  0.00  0.00    +0.210 HD
ENDBRANCH  17  21
TORSDOF 1
ENDMDL
MODEL 3
REMARK VINA RESULT:   -11.201      0.766      5.574
REMARK INTER + INTRA:         -11.529
REMARK INTER:                 -11.529
REMARK INTRA:                   0.000
REMARK UNBOUND:                 0.000
REMARK  Name = ZINC000006482659
REMARK  3 active torsions:
REMARK  status: ('A' for Active; 'I' for Inactive)
REMARK    1  A    between atoms: C_1  and  C_2
REMARK    2  A    between atoms: C_15  and  C_16
REMARK    3  A    between atoms: C_20  and  O_21
REMARK                            x       y       z     vdW  Elec       q    Type
REMARK                         _______ _______ _______ _____ _____    ______ ____
ROOT
ATOM      1  C   UNL     1       2.107   1.490 -21.899  0.00  0.00    +0.014 C 
ATOM      2  C   UNL     1       1.349   2.052 -22.794  0.00  0.00    -0.003 C 
ATOM      3  C   UNL     1       0.722   1.709 -21.708  0.00  0.00    +0.010 C 
ATOM      4  C   UNL     1      -0.553   1.937 -21.595  0.00  0.00    +0.005 C 
ATOM      5  C   UNL     1      -1.200   2.509 -22.567  0.00  0.00    +0.002 C 
ATOM      6  C   UNL     1      -0.572   2.852 -23.652  0.00  0.00    -0.003 C 
ATOM      7  C   UNL     1      -1.219   3.424 -24.625  0.00  0.00    +0.008 C 
ATOM      8  C   UNL     1      -2.494   3.653 -24.511  0.00  0.00    +0.032 C 
ATOM      9  C   UNL     1      -3.121   3.310 -23.426  0.00  0.00    -0.060 C 
ATOM     10  C   UNL     1      -4.396   3.539 -23.312  0.00  0.00    +0.046 C 
ATOM     11  C   UNL     1      -5.023   3.196 -22.227  0.00  0.00    +0.156 C 
ATOM     12  C   UNL     1      -4.377   2.624 -21.255  0.00  0.00    +0.080 C 
ATOM     13  C   UNL     1      -3.103   2.395 -21.368  0.00  0.00    +0.019 C 
ATOM     14  O   UNL     1      -6.299   3.424 -22.113  0.00  0.00    -0.293 OA
ATOM     15  C   UNL     1      -2.474   2.738 -22.454  0.00  0.00    -0.007 C 
ATOM     16  C   UNL     1      -1.828   2.166 -21.482  0.00  0.00    +0.016 C 
ATOM     17  C   UNL     1       2.594   1.938 -23.152  0.00  0.00    +0.121 C 
ATOM     18  C   UNL     1       2.717   2.439 -24.345  0.00  0.00    +0.032 C 
ATOM     19  C   UNL     1       1.548   2.863 -24.724  0.00  0.00    +0.007 C 
ATOM     20  C   UNL     1       0.703   2.623 -23.766  0.00  0.00    +0.001 C 
ENDROOT
BRANCH  17  21
ATOM     21  O   UNL     1       3.549   1.414 -22.441  0.00  0.00    -0.391 OA
ATOM     22  H   UNL     1       4.082   0.826 -22.999  0.00  0.00    +0.210 HD
ENDBRANCH  17  21
TORSDOF 1
ENDMDL
MODEL 4
REMARK VINA RESULT:   -10.683      0.967      6.177
REMARK INTER + INTRA:         -10.995
REMARK INTER:                 -10.995
REMARK INTRA:                   0.000
REMARK UNBOUND:                 0.000
REMARK  Name = ZINC000006482659
REMARK  3 active torsions:
REMARK  status: ('A' for Active; 'I' for Inactive)
REMARK    1  A    between atoms: C_1  and  C_2
REMARK    2  A    between atoms: C_15  and  C_16
REMARK    3  A    between atoms: C_20  and  O_21
REMARK                            x       y       z     vdW  Elec       q    Type
REMARK                         _______ _______ _______ _____ _____    ______ ____
ROOT
ATOM      1  C   UNL     1       2.864   2.389 -24.456  0.00  0.00    +0.014 C 
ATOM      2  C   UNL     1       2.020   2.187 -23.488  0.00  0.00    -0.003 C 
ATOM      3  C   UNL     1       1.493   2.730 -24.545  0.00  0.00    +0.010 C 
ATOM      4  C   UNL     1       0.225   3.020 -24.564  0.00  0.00    +0.005 C 
ATOM      5  C   UNL     1      -0.514   2.766 -23.525  0.00  0.00    +0.002 C 
ATOM      6  C   UNL     1       0.013   2.223 -22.468  0.00  0.00    -0.003 C 
ATOM      7  C   UNL     1      -0.726   1.970 -21.429  0.00  0.00    +0.008 C 
ATOM      8  C   UNL     1      -1.994   2.259 -21.448  0.00  0.00    +0.032 C 
ATOM      9  C   UNL     1      -2.521   2.802 -22.505  0.00  0.00    -0.060 C 
ATOM     10  C   UNL     1      -3.788   3.091 -22.523  0.00  0.00    +0.046 C 
ATOM     11  C   UNL     1      -4.316   3.634 -23.580  0.00  0.00    +0.156 C 
ATOM     12  C   UNL     1      -3.576   3.888 -24.618  0.00  0.00    +0.080 C 
ATOM     13  C   UNL     1      -2.309   3.598 -24.600  0.00  0.00    +0.019 C 
ATOM     14  O   UNL     1      -5.583   3.924 -23.598  0.00  0.00    -0.293 OA
ATOM     15  C   UNL     1      -1.781   3.055 -23.543  0.00  0.00    -0.007 C 
ATOM     16  C   UNL     1      -1.042   3.309 -24.582  0.00  0.00    +0.016 C 
ATOM     17  C   UNL     1       3.234   1.809 -23.218  0.00  0.00    +0.121 C 
ATOM     18  C   UNL     1       3.245   1.321 -22.013  0.00  0.00    +0.032 C 
ATOM     19  C   UNL     1       2.038   1.398 -21.538  0.00  0.00    +0.007 C 
ATOM     20  C   UNL     1       1.281   1.934 -22.449  0.00  0.00    +0.001 C 
ENDROOT
BRANCH  17  21
ATOM     21  O   UNL     1       4.259   1.901 -24.014  0.00  0.00    -0.391 OA
ATOM     22  H   UNL     1       5.073   1.749 -23.511  0.00  0.00    +0.210 HD
ENDBRANCH  17  21
TORSDOF 1
ENDMDL
MODEL 5
REMARK VINA RESULT:   -10.561      1.081      2.656
REMARK INTER + INTRA:         -10.869
REMARK INTER:                 -10.869
REMARK INTRA:                   0.000
REMARK UNBOUND:                 0.000
REMARK  Name = ZINC000006482659
REMARK  3 active torsions:
REMARK  status: ('A' for Active; 'I' for Inactive)
REMARK    1  A    between atoms: C_1  and  C_2
REMARK    2  A    between atoms: C_15  and  C_16
REMARK    3  A    between atoms: C_20  and  O_21
REMARK                            x       y       z     vdW  Elec       q    Type
REMARK                         _______ _______ _______ _____ _____    ______ ____
ROOT
ATOM      1  C   UNL     1      -2.835   4.123 -25.134  0.00  0.00    +0.014 C 
ATOM      2  C   UNL     1      -2.520   3.524 -24.024  0.00  0.00    -0.003 C 
ATOM      3  C   UNL     1      -1.531   3.646 -24.858  0.00  0.00    +0.010 C 
ATOM      4  C   UNL     1      -0.355   3.186 -24.544  0.00  0.00    +0.005 C 
ATOM      5  C   UNL     1      -0.171   2.604 -23.397  0.00  0.00    +0.002 C 
ATOM      6  C   UNL     1      -1.160   2.482 -22.563  0.00  0.00    -0.003 C 
ATOM      7  C   UNL     1      -0.976   1.901 -21.415  0.00  0.00    +0.008 C 
ATOM      8  C   UNL     1       0.200   1.441 -21.101  0.00  0.00    +0.032 C 
ATOM      9  C   UNL     1       1.189   1.563 -21.935  0.00  0.00    -0.060 C 
ATOM     10  C   UNL     1       2.364   1.103 -21.621  0.00  0.00    +0.046 C 
ATOM     11  C   UNL     1       3.353   1.225 -22.455  0.00  0.00    +0.156 C 
ATOM     12  C   UNL     1       3.168   1.807 -23.603  0.00  0.00    +0.080 C 
ATOM     13  C   UNL     1       1.994   2.267 -23.917  0.00  0.00    +0.019 C 
ATOM     14  O   UNL     1       4.528   0.765 -22.142  0.00  0.00    -0.293 OA
ATOM     15  C   UNL     1       1.004   2.145 -23.083  0.00  0.00    -0.007 C 
ATOM     16  C   UNL     1       0.819   2.727 -24.231  0.00  0.00    +0.016 C 
ATOM     17  C   UNL     1      -3.766   3.889 -24.093  0.00  0.00    +0.121 C 
ATOM     18  C   UNL     1      -4.351   3.533 -22.988  0.00  0.00    +0.032 C 
ATOM     19  C   UNL     1      -3.467   2.948 -22.236  0.00  0.00    +0.007 C 
ATOM     20  C   UNL     1      -2.336   2.942 -22.876  0.00  0.00    +0.001 C 
ENDROOT
BRANCH  17  21
ATOM     21  O   UNL     1      -4.329   4.503 -25.092  0.00  0.00    -0.391 OA
ATOM     22  H   UNL     1      -3.873   5.343 -25.253  0.00  0.00    +0.210 HD
ENDBRANCH  17  21
TORSDOF 1
ENDMDL
MODEL 6
REMARK VINA RESULT:    -9.889      1.536      2.557
REMARK INTER + INTRA:         -10.178
REMARK INTER:                 -10.178
REMARK INTRA:                   0.000
REMARK UNBOUND:                 0.000
REMARK  Name = ZINC000006482659
REMARK  3 active torsions:
REMARK  status: ('A' for Active; 'I' for Inactive)
REMARK    1  A    between atoms: C_1  and  C_2
REMARK    2  A    between atoms: C_15  and  C_16
REMARK    3  A    between atoms: C_20  and  O_21
REMARK                            x       y       z     vdW  Elec       q    Type
REMARK                         _______ _______ _______ _____ _____    ______ ____
ROOT
ATOM      1  C   UNL     1      -2.459   2.096 -21.662  0.00  0.00    +0.014 C 
ATOM      2  C   UNL     1      -1.608   2.807 -22.340  0.00  0.00    -0.003 C 
ATOM      3  C   UNL     1      -1.062   1.869 -21.625  0.00  0.00    +0.010 C 
ATOM      4  C   UNL     1       0.229   1.712 -21.635  0.00  0.00    +0.005 C 
ATOM      5  C   UNL     1       0.973   2.494 -22.359  0.00  0.00    +0.002 C 
ATOM      6  C   UNL     1       0.427   3.433 -23.073  0.00  0.00    -0.003 C 
ATOM      7  C   UNL     1       1.171   4.215 -23.797  0.00  0.00    +0.008 C 
ATOM      8  C   UNL     1       2.462   4.059 -23.807  0.00  0.00    +0.032 C 
ATOM      9  C   UNL     1       3.008   3.120 -23.092  0.00  0.00    -0.060 C 
ATOM     10  C   UNL     1       4.298   2.964 -23.102  0.00  0.00    +0.046 C 
ATOM     11  C   UNL     1       4.844   2.025 -22.388  0.00  0.00    +0.156 C 
ATOM     12  C   UNL     1       4.100   1.242 -21.664  0.00  0.00    +0.080 C 
ATOM     13  C   UNL     1       2.810   1.399 -21.654  0.00  0.00    +0.019 C 
ATOM     14  O   UNL     1       6.135   1.868 -22.397  0.00  0.00    -0.293 OA
ATOM     15  C   UNL     1       2.263   2.338 -22.369  0.00  0.00    -0.007 C 
ATOM     16  C   UNL     1       1.519   1.556 -21.645  0.00  0.00    +0.016 C 
ATOM     17  C   UNL     1      -2.846   3.167 -22.503  0.00  0.00    +0.121 C 
ATOM     18  C   UNL     1      -2.868   4.172 -23.328  0.00  0.00    +0.032 C 
ATOM     19  C   UNL     1      -1.643   4.433 -23.675  0.00  0.00    +0.007 C 
ATOM     20  C   UNL     1      -0.864   3.590 -23.064  0.00  0.00    +0.001 C 
ENDROOT
BRANCH  17  21
ATOM     21  O   UNL     1      -3.883   2.619 -21.941  0.00  0.00    -0.391 OA
ATOM     22  H   UNL     1      -4.584   2.501 -22.600  0.00  0.00    +0.210 HD
ENDBRANCH  17  21
TORSDOF 1
ENDMDL
MODEL 7
REMARK VINA RESULT:    -9.635      2.298      6.815
REMARK INTER + INTRA:          -9.917
REMARK INTER:                  -9.917
REMARK INTRA:                   0.000
REMARK UNBOUND:                 0.000
REMARK  Name = ZINC000006482659
REMARK  3 active torsions:
REMARK  status: ('A' for Active; 'I' for Inactive)
REMARK    1  A    between atoms: C_1  and  C_2
REMARK    2  A    between atoms: C_15  and  C_16
REMARK    3  A    between atoms: C_20  and  O_21
REMARK                            x       y       z     vdW  Elec       q    Type
REMARK                         _______ _______ _______ _____ _____    ______ ____
ROOT
ATOM      1  C   UNL     1       4.875   4.706 -23.154  0.00  0.00    +0.014 C 
ATOM      2  C   UNL     1       4.097   3.727 -22.804  0.00  0.00    -0.003 C 
ATOM      3  C   UNL     1       3.467   4.755 -23.289  0.00  0.00    +0.010 C 
ATOM      4  C   UNL     1       2.171   4.737 -23.386  0.00  0.00    +0.005 C 
ATOM      5  C   UNL     1       1.505   3.690 -22.998  0.00  0.00    +0.002 C 
ATOM      6  C   UNL     1       2.134   2.662 -22.513  0.00  0.00    -0.003 C 
ATOM      7  C   UNL     1       1.468   1.615 -22.125  0.00  0.00    +0.008 C 
ATOM      8  C   UNL     1       0.172   1.597 -22.222  0.00  0.00    +0.032 C 
ATOM      9  C   UNL     1      -0.458   2.626 -22.707  0.00  0.00    -0.060 C 
ATOM     10  C   UNL     1      -1.754   2.607 -22.804  0.00  0.00    +0.046 C 
ATOM     11  C   UNL     1      -2.384   3.636 -23.289  0.00  0.00    +0.156 C 
ATOM     12  C   UNL     1      -1.718   4.682 -23.677  0.00  0.00    +0.080 C 
ATOM     13  C   UNL     1      -0.422   4.701 -23.580  0.00  0.00    +0.019 C 
ATOM     14  O   UNL     1      -3.680   3.618 -23.386  0.00  0.00    -0.293 OA
ATOM     15  C   UNL     1       0.209   3.672 -23.095  0.00  0.00    -0.007 C 
ATOM     16  C   UNL     1       0.875   4.719 -23.483  0.00  0.00    +0.016 C 
ATOM     17  C   UNL     1       5.361   3.495 -22.604  0.00  0.00    +0.121 C 
ATOM     18  C   UNL     1       5.475   2.305 -22.092  0.00  0.00    +0.032 C 
ATOM     19  C   UNL     1       4.283   1.802 -21.976  0.00  0.00    +0.007 C 
ATOM     20  C   UNL     1       3.431   2.680 -22.416  0.00  0.00    +0.001 C 
ENDROOT
BRANCH  17  21
ATOM     21  O   UNL     1       6.339   4.310 -22.869  0.00  0.00    -0.391 OA
ATOM     22  H   UNL     1       6.209   5.139 -22.382  0.00  0.00    +0.210 HD
ENDBRANCH  17  21
TORSDOF 1
ENDMDL
MODEL 8
REMARK VINA RESULT:    -9.528      2.311      3.153
REMARK INTER + INTRA:          -9.807
REMARK INTER:                  -9.807
REMARK INTRA:                   0.000
REMARK UNBOUND:                 0.000
REMARK  Name = ZINC000006482659
REMARK  3 active torsions:
REMARK  status: ('A' for Active; 'I' for Inactive)
REMARK    1  A    between atoms: C_1  and  C_2
REMARK    2  A    between atoms: C_15  and  C_16
REMARK    3  A    between atoms: C_20  and  O_21
REMARK                            x       y       z     vdW  Elec       q    Type
REMARK                         _______ _______ _______ _____ _____    ______ ____
ROOT
ATOM      1  C   UNL     1      -4.284   3.047 -26.342  0.00  0.00    +0.014 C 
ATOM      2  C   UNL     1      -3.837   3.502 -25.210  0.00  0.00    -0.003 C 
ATOM      3  C   UNL     1      -2.907   3.245 -26.081  0.00  0.00    +0.010 C 
ATOM      4  C   UNL     1      -1.658   3.448 -25.778  0.00  0.00    +0.005 C 
ATOM      5  C   UNL     1      -1.341   3.910 -24.605  0.00  0.00    +0.002 C 
ATOM      6  C   UNL     1      -2.271   4.168 -23.734  0.00  0.00    -0.003 C 
ATOM      7  C   UNL     1      -1.954   4.629 -22.561  0.00  0.00    +0.008 C 
ATOM      8  C   UNL     1      -0.706   4.833 -22.259  0.00  0.00    +0.032 C 
ATOM      9  C   UNL     1       0.224   4.575 -23.129  0.00  0.00    -0.060 C 
ATOM     10  C   UNL     1       1.471   4.779 -22.827  0.00  0.00    +0.046 C 
ATOM     11  C   UNL     1       2.402   4.521 -23.697  0.00  0.00    +0.156 C 
ATOM     12  C   UNL     1       2.084   4.060 -24.871  0.00  0.00    +0.080 C 
ATOM     13  C   UNL     1       0.837   3.856 -25.173  0.00  0.00    +0.019 C 
ATOM     14  O   UNL     1       3.650   4.725 -23.395  0.00  0.00    -0.293 OA
ATOM     15  C   UNL     1      -0.094   4.114 -24.302  0.00  0.00    -0.007 C 
ATOM     16  C   UNL     1      -0.411   3.652 -25.476  0.00  0.00    +0.016 C 
ATOM     17  C   UNL     1      -5.131   3.389 -25.260  0.00  0.00    +0.121 C 
ATOM     18  C   UNL     1      -5.613   3.781 -24.119  0.00  0.00    +0.032 C 
ATOM     19  C   UNL     1      -4.618   4.136 -23.363  0.00  0.00    +0.007 C 
ATOM     20  C   UNL     1      -3.520   3.964 -24.037  0.00  0.00    +0.001 C 
ENDROOT
BRANCH  17  21
ATOM     21  O   UNL     1      -5.822   2.960 -26.275  0.00  0.00    -0.391 OA
ATOM     22  H   UNL     1      -5.507   2.080 -26.532  0.00  0.00    +0.210 HD
ENDBRANCH  17  21
TORSDOF 1
ENDMDL
