MODEL 1
REMARK VINA RESULT:   -10.834      0.000      0.000
REMARK INTER + INTRA:         -11.564
REMARK INTER:                 -11.465
REMARK INTRA:                  -0.099
REMARK UNBOUND:                -0.096
REMARK  Name = ZINC000029476073
REMARK  4 active torsions:
REMARK  status: ('A' for Active; 'I' for Inactive)
REMARK    1  A    between atoms: C_1  and  O_2
REMARK    2  A    between atoms: O_2  and  C_3
REMARK    3  A    between atoms: N_12  and  C_13
REMARK    4  A    between atoms: C_17  and  C_18
REMARK                            x       y       z     vdW  Elec       q    Type
REMARK                         _______ _______ _______ _____ _____    ______ ____
ROOT
ATOM      1  C   UNL     1       0.161   3.847 -23.905  0.00  0.00    +0.120 A 
ATOM      2  C   UNL     1      -0.066   3.779 -25.151  0.00  0.00    +0.046 A 
ATOM      3  C   UNL     1      -1.263   3.651 -25.546  0.00  0.00    +0.008 A 
ATOM      4  C   UNL     1      -2.344   3.587 -24.551  0.00  0.00    -0.038 A 
ATOM      5  C   UNL     1      -2.079   3.650 -23.526  0.00  0.00    -0.033 A 
ATOM      6  C   UNL     1      -2.611   3.630 -22.737  0.00  0.00    +0.016 C 
ATOM      7  C   UNL     1      -1.506   3.686 -24.009  0.00  0.00    +0.063 C 
ATOM      8  C   UNL     1      -1.999   3.587 -25.394  0.00  0.00    +0.132 C 
ATOM      9  N   UNL     1      -3.153   3.471 -25.588  0.00  0.00    +0.236 N 
ATOM     10  H   UNL     1      -4.155   3.383 -25.416  0.00  0.00    +0.203 HD
ATOM     11  C   UNL     1      -4.207   3.417 -24.406  0.00  0.00    +0.073 C 
ATOM     12  C   UNL     1      -2.960   3.437 -26.976  0.00  0.00    +0.190 C 
ATOM     13  C   UNL     1      -2.305   3.705 -21.520  0.00  0.00    +0.086 C 
ATOM     14  C   UNL     1      -3.234   3.651 -20.615  0.00  0.00    +0.134 C 
ATOM     15  O   UNL     1      -2.917   3.728 -19.373  0.00  0.00    -0.297 OA
ATOM     16  C   UNL     1      -4.500   3.519 -20.954  0.00  0.00    +0.078 C 
ATOM     17  C   UNL     1      -4.860   3.438 -22.196  0.00  0.00    +0.002 C 
ATOM     18  C   UNL     1      -6.101   3.310 -22.508  0.00  0.00    +0.008 C 
ATOM     19  C   UNL     1      -3.985   3.487 -23.102  0.00  0.00    +0.052 C 
ATOM     20  C   UNL     1      -3.541   3.459 -24.955  0.00  0.00    +0.090 C 
ATOM     21  C   UNL     1      -0.834   3.785 -23.082  0.00  0.00    +0.050 A 
ENDROOT
BRANCH   1  23
ATOM     22  C   UNL     1       2.299   4.800 -23.266  0.00  0.00    +0.277 C 
ATOM     23  O   UNL     1       1.340   3.986 -23.172  0.00  0.00    -0.495 OA
ENDBRANCH   1  23
TORSDOF 1
ENDMDL
MODEL 2
REMARK VINA RESULT:   -10.216      2.129      4.737
REMARK INTER + INTRA:         -10.910
REMARK INTER:                 -10.769
REMARK INTRA:                  -0.141
REMARK UNBOUND:                -0.096
REMARK  Name = ZINC000029476073
REMARK  4 active torsions:
REMARK  status: ('A' for Active; 'I' for Inactive)
REMARK    1  A    between atoms: C_1  and  O_2
REMARK    2  A    between atoms: O_2  and  C_3
REMARK    3  A    between atoms: N_12  and  C_13
REMARK    4  A    between atoms: C_17  and  C_18
REMARK                            x       y       z     vdW  Elec       q    Type
REMARK                         _______ _______ _______ _____ _____    ______ ____
ROOT
ATOM      1  C   UNL     1      -3.639   3.836 -24.973  0.00  0.00    +0.120 A 
ATOM      2  C   UNL     1      -4.529   3.721 -24.077  0.00  0.00    +0.046 A 
ATOM      3  C   UNL     1      -4.196   3.266 -22.943  0.00  0.00    +0.008 A 
ATOM      4  C   UNL     1      -2.795   2.887 -22.705  0.00  0.00    -0.038 A 
ATOM      5  C   UNL     1      -2.106   3.010 -23.501  0.00  0.00    -0.033 A 
ATOM      6  C   UNL     1      -1.173   2.831 -23.558  0.00  0.00    +0.016 C 
ATOM      7  C   UNL     1      -2.812   3.212 -23.653  0.00  0.00    +0.063 C 
ATOM      8  C   UNL     1      -3.670   2.995 -22.474  0.00  0.00    +0.132 C 
ATOM      9  N   UNL     1      -3.197   2.560 -21.490  0.00  0.00    +0.236 N 
ATOM     10  H   UNL     1      -2.509   2.191 -20.833  0.00  0.00    +0.203 HD
ATOM     11  C   UNL     1      -1.658   2.196 -21.381  0.00  0.00    +0.073 C 
ATOM     12  C   UNL     1      -4.431   2.598 -20.829  0.00  0.00    +0.190 C 
ATOM     13  C   UNL     1      -0.349   2.975 -24.497  0.00  0.00    +0.086 C 
ATOM     14  C   UNL     1       0.895   2.650 -24.322  0.00  0.00    +0.134 C 
ATOM     15  O   UNL     1       1.733   2.799 -25.284  0.00  0.00    -0.297 OA
ATOM     16  C   UNL     1       1.312   2.170 -23.168  0.00  0.00    +0.078 C 
ATOM     17  C   UNL     1       0.498   2.006 -22.173  0.00  0.00    +0.002 C 
ATOM     18  C   UNL     1       0.922   1.536 -21.053  0.00  0.00    +0.008 C 
ATOM     19  C   UNL     1      -0.719   2.310 -22.307  0.00  0.00    +0.052 C 
ATOM     20  C   UNL     1      -2.469   2.431 -21.565  0.00  0.00    +0.090 C 
ATOM     21  C   UNL     1      -2.425   3.485 -24.700  0.00  0.00    +0.050 A 
ENDROOT
BRANCH   1  23
ATOM     22  C   UNL     1      -3.306   3.776 -27.376  0.00  0.00    +0.277 C 
ATOM     23  O   UNL     1      -3.687   4.293 -26.291  0.00  0.00    -0.495 OA
ENDBRANCH   1  23
TORSDOF 1
ENDMDL
MODEL 3
REMARK VINA RESULT:   -10.106      1.892      2.455
REMARK INTER + INTRA:         -10.793
REMARK INTER:                 -10.696
REMARK INTRA:                  -0.097
REMARK UNBOUND:                -0.096
REMARK  Name = ZINC000029476073
REMARK  4 active torsions:
REMARK  status: ('A' for Active; 'I' for Inactive)
REMARK    1  A    between atoms: C_1  and  O_2
REMARK    2  A    between atoms: O_2  and  C_3
REMARK    3  A    between atoms: N_12  and  C_13
REMARK    4  A    between atoms: C_17  and  C_18
REMARK                            x       y       z     vdW  Elec       q    Type
REMARK                         _______ _______ _______ _____ _____    ______ ____
ROOT
ATOM      1  C   UNL     1       0.766   1.934 -21.892  0.00  0.00    +0.120 A 
ATOM      2  C   UNL     1       1.406   2.288 -22.928  0.00  0.00    +0.046 A 
ATOM      3  C   UNL     1       0.772   2.835 -23.878  0.00  0.00    +0.008 A 
ATOM      4  C   UNL     1      -0.678   3.039 -23.750  0.00  0.00    -0.038 A 
ATOM      5  C   UNL     1      -1.147   2.717 -22.854  0.00  0.00    -0.033 A 
ATOM      6  C   UNL     1      -2.055   2.754 -22.572  0.00  0.00    +0.016 C 
ATOM      7  C   UNL     1      -0.407   2.600 -22.891  0.00  0.00    +0.063 C 
ATOM      8  C   UNL     1       0.125   3.087 -24.175  0.00  0.00    +0.132 C 
ATOM      9  N   UNL     1      -0.607   3.573 -24.955  0.00  0.00    +0.236 N 
ATOM     10  H   UNL     1      -1.464   3.923 -25.384  0.00  0.00    +0.203 HD
ATOM     11  C   UNL     1      -2.159   3.727 -24.675  0.00  0.00    +0.073 C 
ATOM     12  C   UNL     1       0.438   3.796 -25.862  0.00  0.00    +0.190 C 
ATOM     13  C   UNL     1      -2.618   2.375 -21.514  0.00  0.00    +0.086 C 
ATOM     14  C   UNL     1      -3.897   2.540 -21.367  0.00  0.00    +0.134 C 
ATOM     15  O   UNL     1      -4.468   2.152 -20.284  0.00  0.00    -0.297 OA
ATOM     16  C   UNL     1      -4.619   3.101 -22.315  0.00  0.00    +0.078 C 
ATOM     17  C   UNL     1      -4.081   3.506 -23.422  0.00  0.00    +0.002 C 
ATOM     18  C   UNL     1      -4.801   4.052 -24.337  0.00  0.00    +0.008 C 
ATOM     19  C   UNL     1      -2.841   3.362 -23.599  0.00  0.00    +0.052 C 
ATOM     20  C   UNL     1      -1.307   3.587 -24.708  0.00  0.00    +0.090 C 
ATOM     21  C   UNL     1      -0.508   2.142 -21.841  0.00  0.00    +0.050 A 
ENDROOT
BRANCH   1  23
ATOM     22  C   UNL     1       2.303   1.169 -20.178  0.00  0.00    +0.277 C 
ATOM     23  O   UNL     1       1.167   1.322 -20.704  0.00  0.00    -0.495 OA
ENDBRANCH   1  23
TORSDOF 1
ENDMDL
MODEL 4
REMARK VINA RESULT:    -9.732      2.052      3.776
REMARK INTER + INTRA:         -10.398
REMARK INTER:                 -10.246
REMARK INTRA:                  -0.152
REMARK UNBOUND:                -0.096
REMARK  Name = ZINC000029476073
REMARK  4 active torsions:
REMARK  status: ('A' for Active; 'I' for Inactive)
REMARK    1  A    between atoms: C_1  and  O_2
REMARK    2  A    between atoms: O_2  and  C_3
REMARK    3  A    between atoms: N_12  and  C_13
REMARK    4  A    between atoms: C_17  and  C_18
REMARK                            x       y       z     vdW  Elec       q    Type
REMARK                         _______ _______ _______ _____ _____    ______ ____
ROOT
ATOM      1  C   UNL     1      -0.123   2.150 -22.835  0.00  0.00    +0.120 A 
ATOM      2  C   UNL     1      -0.428   2.175 -21.604  0.00  0.00    +0.046 A 
ATOM      3  C   UNL     1      -1.583   2.572 -21.271  0.00  0.00    +0.008 A 
ATOM      4  C   UNL     1      -2.528   2.991 -22.316  0.00  0.00    -0.038 A 
ATOM      5  C   UNL     1      -2.204   2.943 -23.325  0.00  0.00    -0.033 A 
ATOM      6  C   UNL     1      -2.647   3.162 -24.138  0.00  0.00    +0.016 C 
ATOM      7  C   UNL     1      -1.700   2.724 -22.815  0.00  0.00    +0.063 C 
ATOM      8  C   UNL     1      -2.265   2.835 -21.459  0.00  0.00    +0.132 C 
ATOM      9  N   UNL     1      -3.366   3.226 -21.323  0.00  0.00    +0.236 N 
ATOM     10  H   UNL     1      -4.296   3.581 -21.544  0.00  0.00    +0.203 HD
ATOM     11  C   UNL     1      -4.271   3.643 -22.555  0.00  0.00    +0.073 C 
ATOM     12  C   UNL     1      -3.285   3.099 -19.930  0.00  0.00    +0.190 C 
ATOM     13  C   UNL     1      -2.270   3.109 -25.337  0.00  0.00    +0.086 C 
ATOM     14  C   UNL     1      -3.079   3.470 -26.286  0.00  0.00    +0.134 C 
ATOM     15  O   UNL     1      -2.690   3.415 -27.508  0.00  0.00    -0.297 OA
ATOM     16  C   UNL     1      -4.295   3.895 -26.012  0.00  0.00    +0.078 C 
ATOM     17  C   UNL     1      -4.725   3.966 -24.791  0.00  0.00    +0.002 C 
ATOM     18  C   UNL     1      -5.916   4.383 -24.542  0.00  0.00    +0.008 C 
ATOM     19  C   UNL     1      -3.967   3.623 -23.844  0.00  0.00    +0.052 C 
ATOM     20  C   UNL     1      -3.684   3.388 -21.974  0.00  0.00    +0.090 C 
ATOM     21  C   UNL     1      -0.999   2.531 -23.705  0.00  0.00    +0.050 A 
ENDROOT
BRANCH   1  23
ATOM     22  C   UNL     1       1.641   2.274 -24.496  0.00  0.00    +0.277 C 
ATOM     23  O   UNL     1       1.040   1.773 -23.507  0.00  0.00    -0.495 OA
ENDBRANCH   1  23
TORSDOF 1
ENDMDL
MODEL 5
REMARK VINA RESULT:    -9.689      1.621      4.212
REMARK INTER + INTRA:         -10.352
REMARK INTER:                 -10.253
REMARK INTRA:                  -0.099
REMARK UNBOUND:                -0.096
REMARK  Name = ZINC000029476073
REMARK  4 active torsions:
REMARK  status: ('A' for Active; 'I' for Inactive)
REMARK    1  A    between atoms: C_1  and  O_2
REMARK    2  A    between atoms: O_2  and  C_3
REMARK    3  A    between atoms: N_12  and  C_13
REMARK    4  A    between atoms: C_17  and  C_18
REMARK                            x       y       z     vdW  Elec       q    Type
REMARK                         _______ _______ _______ _____ _____    ______ ____
ROOT
ATOM      1  C   UNL     1      -4.675   3.384 -22.950  0.00  0.00    +0.120 A 
ATOM      2  C   UNL     1      -5.011   3.759 -24.114  0.00  0.00    +0.046 A 
ATOM      3  C   UNL     1      -4.124   3.806 -25.017  0.00  0.00    +0.008 A 
ATOM      4  C   UNL     1      -2.743   3.426 -24.689  0.00  0.00    -0.038 A 
ATOM      5  C   UNL     1      -2.536   3.122 -23.693  0.00  0.00    -0.033 A 
ATOM      6  C   UNL     1      -1.727   2.841 -23.278  0.00  0.00    +0.016 C 
ATOM      7  C   UNL     1      -3.248   3.310 -23.831  0.00  0.00    +0.063 C 
ATOM      8  C   UNL     1      -3.409   3.711 -25.239  0.00  0.00    +0.132 C 
ATOM      9  N   UNL     1      -2.474   3.698 -25.953  0.00  0.00    +0.236 N 
ATOM     10  H   UNL     1      -1.517   3.580 -26.283  0.00  0.00    +0.203 HD
ATOM     11  C   UNL     1      -1.036   3.261 -25.451  0.00  0.00    +0.073 C 
ATOM     12  C   UNL     1      -3.242   4.144 -27.037  0.00  0.00    +0.190 C 
ATOM     13  C   UNL     1      -1.473   2.480 -22.100  0.00  0.00    +0.086 C 
ATOM     14  C   UNL     1      -0.265   2.138 -21.775  0.00  0.00    +0.134 C 
ATOM     15  O   UNL     1      -0.010   1.770 -20.571  0.00  0.00    -0.297 OA
ATOM     16  C   UNL     1       0.707   2.163 -22.664  0.00  0.00    +0.078 C 
ATOM     17  C   UNL     1       0.491   2.528 -23.889  0.00  0.00    +0.002 C 
ATOM     18  C   UNL     1       1.452   2.546 -24.744  0.00  0.00    +0.008 C 
ATOM     19  C   UNL     1      -0.671   2.868 -24.241  0.00  0.00    +0.052 C 
ATOM     20  C   UNL     1      -1.860   3.475 -25.600  0.00  0.00    +0.090 C 
ATOM     21  C   UNL     1      -3.444   3.063 -22.725  0.00  0.00    +0.050 A 
ENDROOT
BRANCH   1  23
ATOM     22  C   UNL     1      -6.475   2.622 -21.512  0.00  0.00    +0.277 C 
ATOM     23  O   UNL     1      -5.400   3.230 -21.768  0.00  0.00    -0.495 OA
ENDBRANCH   1  23
TORSDOF 1
ENDMDL
MODEL 6
REMARK VINA RESULT:    -9.353      1.984      3.455
REMARK INTER + INTRA:          -9.997
REMARK INTER:                  -9.833
REMARK INTRA:                  -0.163
REMARK UNBOUND:                -0.096
REMARK  Name = ZINC000029476073
REMARK  4 active torsions:
REMARK  status: ('A' for Active; 'I' for Inactive)
REMARK    1  A    between atoms: C_1  and  O_2
REMARK    2  A    between atoms: O_2  and  C_3
REMARK    3  A    between atoms: N_12  and  C_13
REMARK    4  A    between atoms: C_17  and  C_18
REMARK                            x       y       z     vdW  Elec       q    Type
REMARK                         _______ _______ _______ _____ _____    ______ ____
ROOT
ATOM      1  C   UNL     1      -1.975   3.375 -26.022  0.00  0.00    +0.120 A 
ATOM      2  C   UNL     1      -0.723   3.375 -25.821  0.00  0.00    +0.046 A 
ATOM      3  C   UNL     1      -0.299   3.375 -24.627  0.00  0.00    +0.008 A 
ATOM      4  C   UNL     1      -1.267   3.375 -23.521  0.00  0.00    -0.038 A 
ATOM      5  C   UNL     1      -2.299   3.375 -23.765  0.00  0.00    -0.033 A 
ATOM      6  C   UNL     1      -3.075   3.375 -23.214  0.00  0.00    +0.016 C 
ATOM      7  C   UNL     1      -1.830   3.375 -24.350  0.00  0.00    +0.063 C 
ATOM      8  C   UNL     1      -0.432   3.375 -23.884  0.00  0.00    +0.132 C 
ATOM      9  N   UNL     1      -0.209   3.375 -22.730  0.00  0.00    +0.236 N 
ATOM     10  H   UNL     1      -0.356   3.375 -21.721  0.00  0.00    +0.203 HD
ATOM     11  C   UNL     1      -1.366   3.375 -21.647  0.00  0.00    +0.073 C 
ATOM     12  C   UNL     1       1.174   3.375 -22.953  0.00  0.00    +0.190 C 
ATOM     13  C   UNL     1      -4.301   3.375 -23.495  0.00  0.00    +0.086 C 
ATOM     14  C   UNL     1      -5.183   3.375 -22.544  0.00  0.00    +0.134 C 
ATOM     15  O   UNL     1      -6.434   3.375 -22.835  0.00  0.00    -0.297 OA
ATOM     16  C   UNL     1      -4.813   3.375 -21.280  0.00  0.00    +0.078 C 
ATOM     17  C   UNL     1      -3.560   3.375 -20.944  0.00  0.00    +0.002 C 
ATOM     18  C   UNL     1      -3.217   3.375 -19.704  0.00  0.00    +0.008 C 
ATOM     19  C   UNL     1      -2.676   3.375 -21.842  0.00  0.00    +0.052 C 
ATOM     20  C   UNL     1      -0.833   3.375 -22.327  0.00  0.00    +0.090 C 
ATOM     21  C   UNL     1      -2.774   3.375 -25.006  0.00  0.00    +0.050 A 
ENDROOT
BRANCH   1  23
ATOM     22  C   UNL     1      -3.985   3.375 -27.382  0.00  0.00    +0.277 C 
ATOM     23  O   UNL     1      -2.738   3.375 -27.191  0.00  0.00    -0.495 OA
ENDBRANCH   1  23
TORSDOF 1
ENDMDL
MODEL 7
REMARK VINA RESULT:    -9.139      2.157      4.741
REMARK INTER + INTRA:          -9.769
REMARK INTER:                  -9.673
REMARK INTRA:                  -0.096
REMARK UNBOUND:                -0.096
REMARK  Name = ZINC000029476073
REMARK  4 active torsions:
REMARK  status: ('A' for Active; 'I' for Inactive)
REMARK    1  A    between atoms: C_1  and  O_2
REMARK    2  A    between atoms: O_2  and  C_3
REMARK    3  A    between atoms: N_12  and  C_13
REMARK    4  A    between atoms: C_17  and  C_18
REMARK                            x       y       z     vdW  Elec       q    Type
REMARK                         _______ _______ _______ _____ _____    ______ ____
ROOT
ATOM      1  C   UNL     1      -2.865   2.582 -22.059  0.00  0.00    +0.120 A 
ATOM      2  C   UNL     1      -3.241   3.000 -23.196  0.00  0.00    +0.046 A 
ATOM      3  C   UNL     1      -2.372   3.159 -24.103  0.00  0.00    +0.008 A 
ATOM      4  C   UNL     1      -0.963   2.857 -23.810  0.00  0.00    -0.038 A 
ATOM      5  C   UNL     1      -0.722   2.512 -22.837  0.00  0.00    -0.033 A 
ATOM      6  C   UNL     1       0.109   2.264 -22.446  0.00  0.00    +0.016 C 
ATOM      7  C   UNL     1      -1.448   2.657 -22.956  0.00  0.00    +0.063 C 
ATOM      8  C   UNL     1      -1.655   3.127 -24.337  0.00  0.00    +0.132 C 
ATOM      9  N   UNL     1      -0.731   3.220 -25.059  0.00  0.00    +0.236 N 
ATOM     10  H   UNL     1       0.228   3.188 -25.405  0.00  0.00    +0.203 HD
ATOM     11  C   UNL     1       0.741   2.855 -24.597  0.00  0.00    +0.073 C 
ATOM     12  C   UNL     1      -1.541   3.674 -26.108  0.00  0.00    +0.190 C 
ATOM     13  C   UNL     1       0.403   1.853 -21.294  0.00  0.00    +0.086 C 
ATOM     14  C   UNL     1       1.636   1.577 -21.001  0.00  0.00    +0.134 C 
ATOM     15  O   UNL     1       1.932   1.158 -19.823  0.00  0.00    -0.297 OA
ATOM     16  C   UNL     1       2.592   1.720 -21.896  0.00  0.00    +0.078 C 
ATOM     17  C   UNL     1       2.335   2.140 -23.095  0.00  0.00    +0.002 C 
ATOM     18  C   UNL     1       3.280   2.274 -23.957  0.00  0.00    +0.008 C 
ATOM     19  C   UNL     1       1.147   2.418 -23.415  0.00  0.00    +0.052 C 
ATOM     20  C   UNL     1      -0.098   3.020 -24.726  0.00  0.00    +0.090 C 
ATOM     21  C   UNL     1      -1.611   2.334 -21.865  0.00  0.00    +0.050 A 
ENDROOT
BRANCH   1  23
ATOM     22  C   UNL     1      -4.796   2.242 -20.630  0.00  0.00    +0.277 C 
ATOM     23  O   UNL     1      -3.562   2.311 -20.881  0.00  0.00    -0.495 OA
ENDBRANCH   1  23
TORSDOF 1
ENDMDL
MODEL 8
REMARK VINA RESULT:    -9.099      2.258      3.321
REMARK INTER + INTRA:          -9.727
REMARK INTER:                  -9.627
REMARK INTRA:                  -0.100
REMARK UNBOUND:                -0.096
REMARK  Name = ZINC000029476073
REMARK  4 active torsions:
REMARK  status: ('A' for Active; 'I' for Inactive)
REMARK    1  A    between atoms: C_1  and  O_2
REMARK    2  A    between atoms: O_2  and  C_3
REMARK    3  A    between atoms: N_12  and  C_13
REMARK    4  A    between atoms: C_17  and  C_18
REMARK                            x       y       z     vdW  Elec       q    Type
REMARK                         _______ _______ _______ _____ _____    ______ ____
ROOT
ATOM      1  C   UNL     1       0.160   3.233 -24.507  0.00  0.00    +0.120 A 
ATOM      2  C   UNL     1       0.783   2.653 -23.568  0.00  0.00    +0.046 A 
ATOM      3  C   UNL     1       0.135   2.281 -22.546  0.00  0.00    +0.008 A 
ATOM      4  C   UNL     1      -1.312   2.532 -22.482  0.00  0.00    -0.038 A 
ATOM      5  C   UNL     1      -1.767   3.023 -23.305  0.00  0.00    -0.033 A 
ATOM      6  C   UNL     1      -2.670   3.277 -23.465  0.00  0.00    +0.016 C 
ATOM      7  C   UNL     1      -1.028   2.909 -23.367  0.00  0.00    +0.063 C 
ATOM      8  C   UNL     1      -0.515   2.223 -22.167  0.00  0.00    +0.132 C 
ATOM      9  N   UNL     1      -1.259   1.945 -21.300  0.00  0.00    +0.236 N 
ATOM     10  H   UNL     1      -2.122   1.852 -20.764  0.00  0.00    +0.203 HD
ATOM     11  C   UNL     1      -2.806   2.283 -21.374  0.00  0.00    +0.073 C 
ATOM     12  C   UNL     1      -0.229   1.374 -20.541  0.00  0.00    +0.190 C 
ATOM     13  C   UNL     1      -3.217   3.858 -24.437  0.00  0.00    +0.086 C 
ATOM     14  C   UNL     1      -4.492   4.096 -24.414  0.00  0.00    +0.134 C 
ATOM     15  O   UNL     1      -5.046   4.689 -25.409  0.00  0.00    -0.297 OA
ATOM     16  C   UNL     1      -5.228   3.736 -23.383  0.00  0.00    +0.078 C 
ATOM     17  C   UNL     1      -4.707   3.135 -22.359  0.00  0.00    +0.002 C 
ATOM     18  C   UNL     1      -5.441   2.791 -21.361  0.00  0.00    +0.008 C 
ATOM     19  C   UNL     1      -3.470   2.887 -22.347  0.00  0.00    +0.052 C 
ATOM     20  C   UNL     1      -1.955   2.156 -21.453  0.00  0.00    +0.090 C 
ATOM     21  C   UNL     1      -1.113   3.425 -24.390  0.00  0.00    +0.050 A 
ENDROOT
BRANCH   1  23
ATOM     22  C   UNL     1       1.469   4.592 -26.033  0.00  0.00    +0.277 C 
ATOM     23  O   UNL     1       0.578   3.750 -25.734  0.00  0.00    -0.495 OA
ENDBRANCH   1  23
TORSDOF 1
ENDMDL
MODEL 9
REMARK VINA RESULT:    -8.727      3.956      6.510
REMARK INTER + INTRA:          -9.334
REMARK INTER:                  -9.238
REMARK INTRA:                  -0.096
REMARK UNBOUND:                -0.096
REMARK  Name = ZINC000029476073
REMARK  4 active torsions:
REMARK  status: ('A' for Active; 'I' for Inactive)
REMARK    1  A    between atoms: C_1  and  O_2
REMARK    2  A    between atoms: O_2  and  C_3
REMARK    3  A    between atoms: N_12  and  C_13
REMARK    4  A    between atoms: C_17  and  C_18
REMARK                            x       y       z     vdW  Elec       q    Type
REMARK                         _______ _______ _______ _____ _____    ______ ____
ROOT
ATOM      1  C   UNL     1       5.553   3.704 -22.891  0.00  0.00    +0.120 A 
ATOM      2  C   UNL     1       6.076   2.732 -22.266  0.00  0.00    +0.046 A 
ATOM      3  C   UNL     1       5.316   1.852 -21.763  0.00  0.00    +0.008 A 
ATOM      4  C   UNL     1       3.861   1.986 -21.920  0.00  0.00    -0.038 A 
ATOM      5  C   UNL     1       3.495   2.825 -22.455  0.00  0.00    -0.033 A 
ATOM      6  C   UNL     1       2.608   3.097 -22.668  0.00  0.00    +0.016 C 
ATOM      7  C   UNL     1       4.241   2.784 -22.392  0.00  0.00    +0.063 C 
ATOM      8  C   UNL     1       4.624   1.582 -21.632  0.00  0.00    +0.132 C 
ATOM      9  N   UNL     1       3.785   0.861 -21.231  0.00  0.00    +0.236 N 
ATOM     10  H   UNL     1       2.864   0.470 -21.037  0.00  0.00    +0.203 HD
ATOM     11  C   UNL     1       2.245   1.138 -21.480  0.00  0.00    +0.073 C 
ATOM     12  C   UNL     1       4.735   0.006 -20.656  0.00  0.00    +0.190 C 
ATOM     13  C   UNL     1       2.166   4.089 -23.301  0.00  0.00    +0.086 C 
ATOM     14  C   UNL     1       0.887   4.238 -23.459  0.00  0.00    +0.134 C 
ATOM     15  O   UNL     1       0.439   5.253 -24.106  0.00  0.00    -0.297 OA
ATOM     16  C   UNL     1       0.038   3.362 -22.962  0.00  0.00    +0.078 C 
ATOM     17  C   UNL     1       0.449   2.325 -22.302  0.00  0.00    +0.002 C 
ATOM     18  C   UNL     1      -0.394   1.479 -21.825  0.00  0.00    +0.008 C 
ATOM     19  C   UNL     1       1.685   2.147 -22.130  0.00  0.00    +0.052 C 
ATOM     20  C   UNL     1       3.106   1.099 -21.412  0.00  0.00    +0.090 C 
ATOM     21  C   UNL     1       4.266   3.763 -22.994  0.00  0.00    +0.050 A 
ENDROOT
BRANCH   1  23
ATOM     22  C   UNL     1       7.290   5.232 -23.622  0.00  0.00    +0.277 C 
ATOM     23  O   UNL     1       6.106   4.807 -23.543  0.00  0.00    -0.495 OA
ENDBRANCH   1  23
TORSDOF 1
ENDMDL
