MODEL 1
REMARK VINA RESULT:    -9.009      0.000      0.000
REMARK INTER + INTRA:         -10.329
REMARK INTER:                 -10.123
REMARK INTRA:                  -0.206
REMARK UNBOUND:                -0.266
REMARK  Name = CC[N@+]1(C)CCc2cc3c(c4c2[C@@H]1Cc1ccc(OC)cc1-4)OCO3                  ZINC000249692476
REMARK  5 active torsions:
REMARK  status: ('A' for Active; 'I' for Inactive)
REMARK    1  A    between atoms: C_1  and  C_2
REMARK    2  A    between atoms: C_2  and  N_3
REMARK    3  A    between atoms: N_3  and  C_4
REMARK    4  A    between atoms: C_18  and  O_19
REMARK    5  A    between atoms: O_19  and  C_20
REMARK                            x       y       z     vdW  Elec       q    Type
REMARK                         _______ _______ _______ _____ _____    ______ ____
ROOT
ATOM      1  N   UNL     1       0.947   2.065 -22.270  0.00  0.00    +0.247 N 
ATOM      2  C   UNL     1       1.738   2.171 -23.295  0.00  0.00    +0.138 C 
ATOM      3  C   UNL     1       1.262   2.546 -24.446  0.00  0.00    +0.086 C 
ATOM      4  C   UNL     1      -0.004   2.815 -24.571  0.00  0.00    -0.030 A 
ATOM      5  C   UNL     1      -0.478   3.189 -25.722  0.00  0.00    +0.054 A 
ATOM      6  C   UNL     1      -1.744   3.458 -25.846  0.00  0.00    +0.167 A 
ATOM      7  C   UNL     1      -2.535   3.351 -24.820  0.00  0.00    +0.174 A 
ATOM      8  O   UNL     1      -3.735   3.671 -25.203  0.00  0.00    -0.452 OA
ATOM      9  C   UNL     1      -3.686   3.976 -26.466  0.00  0.00    +0.466 C 
ATOM     10  C   UNL     1      -2.060   2.976 -23.669  0.00  0.00    +0.037 A 
ATOM     11  C   UNL     1      -2.851   2.869 -22.643  0.00  0.00    -0.007 A 
ATOM     12  C   UNL     1      -4.117   3.138 -22.768  0.00  0.00    +0.054 A 
ATOM     13  C   UNL     1      -4.908   3.031 -21.741  0.00  0.00    +0.121 A 
ATOM     14  C   UNL     1      -4.434   2.656 -20.591  0.00  0.00    +0.046 A 
ATOM     15  C   UNL     1      -3.168   2.388 -20.467  0.00  0.00    +0.008 A 
ATOM     16  C   UNL     1      -2.376   2.494 -21.493  0.00  0.00    -0.034 A 
ATOM     17  C   UNL     1      -1.110   2.226 -21.368  0.00  0.00    +0.095 C 
ATOM     18  O   UNL     1      -2.455   3.844 -26.864  0.00  0.00    -0.453 OA
ATOM     19  C   UNL     1      -0.794   2.708 -23.545  0.00  0.00    +0.015 A 
ATOM     20  C   UNL     1       0.547   1.837 -21.053  0.00  0.00    +0.193 C 
ATOM     21  C   UNL     1      -0.320   2.333 -22.394  0.00  0.00    +0.102 C 
ENDROOT
BRANCH   1  23
ATOM     22  C   UNL     1       2.638   0.594 -22.053  0.00  0.00    +0.060 C 
ATOM     23  C   UNL     1       2.073   1.718 -21.723  0.00  0.00    +0.130 C 
ENDBRANCH   1  23
BRANCH  13  24
ATOM     24  O   UNL     1      -6.174   3.299 -21.866  0.00  0.00    -0.495 OA
ATOM     25  C   UNL     1      -7.057   2.361 -21.697  0.00  0.00    +0.277 C 
ENDBRANCH  13  24
TORSDOF 2
ENDMDL
MODEL 2
REMARK VINA RESULT:    -8.250      2.382      5.182
REMARK INTER + INTRA:          -9.481
REMARK INTER:                  -9.160
REMARK INTRA:                  -0.321
REMARK UNBOUND:                -0.266
REMARK  Name = CC[N@+]1(C)CCc2cc3c(c4c2[C@@H]1Cc1ccc(OC)cc1-4)OCO3                  ZINC000249692476
REMARK  5 active torsions:
REMARK  status: ('A' for Active; 'I' for Inactive)
REMARK    1  A    between atoms: C_1  and  C_2
REMARK    2  A    between atoms: C_2  and  N_3
REMARK    3  A    between atoms: N_3  and  C_4
REMARK    4  A    between atoms: C_18  and  O_19
REMARK    5  A    between atoms: O_19  and  C_20
REMARK                            x       y       z     vdW  Elec       q    Type
REMARK                         _______ _______ _______ _____ _____    ______ ____
ROOT
ATOM      1  N   UNL     1      -3.677   3.189 -22.449  0.00  0.00    +0.247 N 
ATOM      2  C   UNL     1      -4.183   3.700 -23.531  0.00  0.00    +0.138 C 
ATOM      3  C   UNL     1      -3.425   3.917 -24.564  0.00  0.00    +0.086 C 
ATOM      4  C   UNL     1      -2.160   3.623 -24.516  0.00  0.00    -0.030 A 
ATOM      5  C   UNL     1      -1.402   3.840 -25.550  0.00  0.00    +0.054 A 
ATOM      6  C   UNL     1      -0.137   3.545 -25.501  0.00  0.00    +0.167 A 
ATOM      7  C   UNL     1       0.370   3.033 -24.419  0.00  0.00    +0.174 A 
ATOM      8  O   UNL     1       1.638   2.832 -24.625  0.00  0.00    -0.452 OA
ATOM      9  C   UNL     1       1.914   3.220 -25.835  0.00  0.00    +0.466 C 
ATOM     10  C   UNL     1      -0.388   2.816 -23.385  0.00  0.00    +0.037 A 
ATOM     11  C   UNL     1       0.119   2.304 -22.303  0.00  0.00    -0.007 A 
ATOM     12  C   UNL     1       1.385   2.009 -22.255  0.00  0.00    +0.054 A 
ATOM     13  C   UNL     1       1.891   1.497 -21.173  0.00  0.00    +0.121 A 
ATOM     14  C   UNL     1       1.134   1.280 -20.140  0.00  0.00    +0.046 A 
ATOM     15  C   UNL     1      -0.132   1.575 -20.188  0.00  0.00    +0.008 A 
ATOM     16  C   UNL     1      -0.639   2.087 -21.270  0.00  0.00    -0.034 A 
ATOM     17  C   UNL     1      -1.904   2.381 -21.318  0.00  0.00    +0.095 C 
ATOM     18  O   UNL     1       0.818   3.661 -26.376  0.00  0.00    -0.453 OA
ATOM     19  C   UNL     1      -1.653   3.111 -23.434  0.00  0.00    +0.015 A 
ATOM     20  C   UNL     1      -3.600   2.723 -21.238  0.00  0.00    +0.193 C 
ATOM     21  C   UNL     1      -2.411   2.893 -22.401  0.00  0.00    +0.102 C 
ENDROOT
BRANCH   1  23
ATOM     22  C   UNL     1      -5.468   2.416 -21.325  0.00  0.00    +0.060 C 
ATOM     23  C   UNL     1      -4.914   3.321 -22.077  0.00  0.00    +0.130 C 
ENDBRANCH   1  23
BRANCH  13  24
ATOM     24  O   UNL     1       3.157   1.202 -21.124  0.00  0.00    -0.495 OA
ATOM     25  C   UNL     1       3.745   0.687 -22.162  0.00  0.00    +0.277 C 
ENDBRANCH  13  24
TORSDOF 2
ENDMDL
MODEL 3
REMARK VINA RESULT:    -7.901      1.417      3.875
REMARK INTER + INTRA:          -9.091
REMARK INTER:                  -8.808
REMARK INTRA:                  -0.282
REMARK UNBOUND:                -0.266
REMARK  Name = CC[N@+]1(C)CCc2cc3c(c4c2[C@@H]1Cc1ccc(OC)cc1-4)OCO3                  ZINC000249692476
REMARK  5 active torsions:
REMARK  status: ('A' for Active; 'I' for Inactive)
REMARK    1  A    between atoms: C_1  and  C_2
REMARK    2  A    between atoms: C_2  and  N_3
REMARK    3  A    between atoms: N_3  and  C_4
REMARK    4  A    between atoms: C_18  and  O_19
REMARK    5  A    between atoms: O_19  and  C_20
REMARK                            x       y       z     vdW  Elec       q    Type
REMARK                         _______ _______ _______ _____ _____    ______ ____
ROOT
ATOM      1  N   UNL     1       1.667   2.398 -24.054  0.00  0.00    +0.247 N 
ATOM      2  C   UNL     1       2.138   2.014 -22.905  0.00  0.00    +0.138 C 
ATOM      3  C   UNL     1       1.342   1.888 -21.885  0.00  0.00    +0.086 C 
ATOM      4  C   UNL     1       0.074   2.145 -22.014  0.00  0.00    -0.030 A 
ATOM      5  C   UNL     1      -0.722   2.019 -20.994  0.00  0.00    +0.054 A 
ATOM      6  C   UNL     1      -1.990   2.276 -21.123  0.00  0.00    +0.167 A 
ATOM      7  C   UNL     1      -2.461   2.660 -22.273  0.00  0.00    +0.174 A 
ATOM      8  O   UNL     1      -3.740   2.851 -22.138  0.00  0.00    -0.452 OA
ATOM      9  C   UNL     1      -4.059   2.585 -20.906  0.00  0.00    +0.466 C 
ATOM     10  C   UNL     1      -1.665   2.787 -23.292  0.00  0.00    +0.037 A 
ATOM     11  C   UNL     1      -2.137   3.171 -24.441  0.00  0.00    -0.007 A 
ATOM     12  C   UNL     1      -3.405   3.428 -24.570  0.00  0.00    +0.054 A 
ATOM     13  C   UNL     1      -3.875   3.812 -25.719  0.00  0.00    +0.121 A 
ATOM     14  C   UNL     1      -3.080   3.938 -26.739  0.00  0.00    +0.046 A 
ATOM     15  C   UNL     1      -1.813   3.681 -26.610  0.00  0.00    +0.008 A 
ATOM     16  C   UNL     1      -1.340   3.297 -25.461  0.00  0.00    -0.034 A 
ATOM     17  C   UNL     1      -0.073   3.039 -25.332  0.00  0.00    +0.095 C 
ATOM     18  O   UNL     1      -2.977   2.230 -20.279  0.00  0.00    -0.453 OA
ATOM     19  C   UNL     1      -0.398   2.529 -23.163  0.00  0.00    +0.015 A 
ATOM     20  C   UNL     1       1.631   2.733 -25.310  0.00  0.00    +0.193 C 
ATOM     21  C   UNL     1       0.398   2.656 -24.183  0.00  0.00    +0.102 C 
ENDROOT
BRANCH   1  23
ATOM     22  C   UNL     1       3.433   1.067 -24.475  0.00  0.00    +0.060 C 
ATOM     23  C   UNL     1       2.921   2.257 -24.361  0.00  0.00    +0.130 C 
ENDBRANCH   1  23
BRANCH  13  24
ATOM     24  O   UNL     1      -5.144   4.070 -25.849  0.00  0.00    -0.495 OA
ATOM     25  C   UNL     1      -5.911   4.097 -24.801  0.00  0.00    +0.277 C 
ENDBRANCH  13  24
TORSDOF 2
ENDMDL
MODEL 4
REMARK VINA RESULT:    -7.734      4.810      8.178
REMARK INTER + INTRA:          -8.904
REMARK INTER:                  -8.580
REMARK INTRA:                  -0.325
REMARK UNBOUND:                -0.266
REMARK  Name = CC[N@+]1(C)CCc2cc3c(c4c2[C@@H]1Cc1ccc(OC)cc1-4)OCO3                  ZINC000249692476
REMARK  5 active torsions:
REMARK  status: ('A' for Active; 'I' for Inactive)
REMARK    1  A    between atoms: C_1  and  C_2
REMARK    2  A    between atoms: C_2  and  N_3
REMARK    3  A    between atoms: N_3  and  C_4
REMARK    4  A    between atoms: C_18  and  O_19
REMARK    5  A    between atoms: O_19  and  C_20
REMARK                            x       y       z     vdW  Elec       q    Type
REMARK                         _______ _______ _______ _____ _____    ______ ____
ROOT
ATOM      1  N   UNL     1       1.030   4.079 -23.510  0.00  0.00    +0.247 N 
ATOM      2  C   UNL     1       0.174   3.111 -23.373  0.00  0.00    +0.138 C 
ATOM      3  C   UNL     1       0.535   2.001 -22.800  0.00  0.00    +0.086 C 
ATOM      4  C   UNL     1       1.752   1.860 -22.363  0.00  0.00    -0.030 A 
ATOM      5  C   UNL     1       2.112   0.750 -21.790  0.00  0.00    +0.054 A 
ATOM      6  C   UNL     1       3.328   0.609 -21.354  0.00  0.00    +0.167 A 
ATOM      7  C   UNL     1       4.184   1.578 -21.492  0.00  0.00    +0.174 A 
ATOM      8  O   UNL     1       5.315   1.191 -20.980  0.00  0.00    -0.452 OA
ATOM      9  C   UNL     1       5.157  -0.018 -20.526  0.00  0.00    +0.466 C 
ATOM     10  C   UNL     1       3.824   2.688 -22.065  0.00  0.00    +0.037 A 
ATOM     11  C   UNL     1       4.680   3.656 -22.202  0.00  0.00    -0.007 A 
ATOM     12  C   UNL     1       5.897   3.515 -21.766  0.00  0.00    +0.054 A 
ATOM     13  C   UNL     1       6.752   4.484 -21.904  0.00  0.00    +0.121 A 
ATOM     14  C   UNL     1       6.392   5.593 -22.476  0.00  0.00    +0.046 A 
ATOM     15  C   UNL     1       5.176   5.735 -22.912  0.00  0.00    +0.008 A 
ATOM     16  C   UNL     1       4.319   4.766 -22.775  0.00  0.00    -0.034 A 
ATOM     17  C   UNL     1       3.103   4.907 -23.211  0.00  0.00    +0.095 C 
ATOM     18  O   UNL     1       3.930  -0.377 -20.758  0.00  0.00    -0.453 OA
ATOM     19  C   UNL     1       2.607   2.828 -22.501  0.00  0.00    +0.015 A 
ATOM     20  C   UNL     1       1.523   5.237 -23.838  0.00  0.00    +0.193 C 
ATOM     21  C   UNL     1       2.247   3.938 -23.074  0.00  0.00    +0.102 C 
ENDROOT
BRANCH   1  23
ATOM     22  C   UNL     1      -0.887   5.245 -23.324  0.00  0.00    +0.060 C 
ATOM     23  C   UNL     1      -0.015   4.622 -24.060  0.00  0.00    +0.130 C 
ENDBRANCH   1  23
BRANCH  13  24
ATOM     24  O   UNL     1       7.970   4.343 -21.467  0.00  0.00    -0.495 OA
ATOM     25  C   UNL     1       8.457   5.194 -20.614  0.00  0.00    +0.277 C 
ENDBRANCH  13  24
TORSDOF 2
ENDMDL
MODEL 5
REMARK VINA RESULT:    -7.336      2.334      5.943
REMARK INTER + INTRA:          -8.460
REMARK INTER:                  -8.230
REMARK INTRA:                  -0.230
REMARK UNBOUND:                -0.266
REMARK  Name = CC[N@+]1(C)CCc2cc3c(c4c2[C@@H]1Cc1ccc(OC)cc1-4)OCO3                  ZINC000249692476
REMARK  5 active torsions:
REMARK  status: ('A' for Active; 'I' for Inactive)
REMARK    1  A    between atoms: C_1  and  C_2
REMARK    2  A    between atoms: C_2  and  N_3
REMARK    3  A    between atoms: N_3  and  C_4
REMARK    4  A    between atoms: C_18  and  O_19
REMARK    5  A    between atoms: O_19  and  C_20
REMARK                            x       y       z     vdW  Elec       q    Type
REMARK                         _______ _______ _______ _____ _____    ______ ____
ROOT
ATOM      1  N   UNL     1      -3.594   3.566 -26.055  0.00  0.00    +0.247 N 
ATOM      2  C   UNL     1      -4.843   3.799 -25.781  0.00  0.00    +0.138 C 
ATOM      3  C   UNL     1      -5.237   3.854 -24.543  0.00  0.00    +0.086 C 
ATOM      4  C   UNL     1      -4.383   3.676 -23.580  0.00  0.00    -0.030 A 
ATOM      5  C   UNL     1      -4.778   3.731 -22.342  0.00  0.00    +0.054 A 
ATOM      6  C   UNL     1      -3.924   3.552 -21.379  0.00  0.00    +0.167 A 
ATOM      7  C   UNL     1      -2.674   3.319 -21.653  0.00  0.00    +0.174 A 
ATOM      8  O   UNL     1      -2.035   3.179 -20.530  0.00  0.00    -0.452 OA
ATOM      9  C   UNL     1      -2.890   3.326 -19.561  0.00  0.00    +0.466 C 
ATOM     10  C   UNL     1      -2.279   3.264 -22.891  0.00  0.00    +0.037 A 
ATOM     11  C   UNL     1      -1.030   3.031 -23.165  0.00  0.00    -0.007 A 
ATOM     12  C   UNL     1      -0.176   2.853 -22.201  0.00  0.00    +0.054 A 
ATOM     13  C   UNL     1       1.073   2.620 -22.476  0.00  0.00    +0.121 A 
ATOM     14  C   UNL     1       1.468   2.565 -23.713  0.00  0.00    +0.046 A 
ATOM     15  C   UNL     1       0.614   2.743 -24.676  0.00  0.00    +0.008 A 
ATOM     16  C   UNL     1      -0.636   2.976 -24.402  0.00  0.00    -0.034 A 
ATOM     17  C   UNL     1      -1.490   3.154 -25.366  0.00  0.00    +0.095 C 
ATOM     18  O   UNL     1      -4.057   3.557 -20.086  0.00  0.00    -0.453 OA
ATOM     19  C   UNL     1      -3.134   3.442 -23.854  0.00  0.00    +0.015 A 
ATOM     20  C   UNL     1      -2.511   3.371 -26.747  0.00  0.00    +0.193 C 
ATOM     21  C   UNL     1      -2.739   3.387 -25.091  0.00  0.00    +0.102 C 
ENDROOT
BRANCH   1  23
ATOM     22  C   UNL     1      -3.330   3.375 -28.282  0.00  0.00    +0.060 C 
ATOM     23  C   UNL     1      -4.072   3.676 -27.258  0.00  0.00    +0.130 C 
ENDBRANCH   1  23
BRANCH  13  24
ATOM     24  O   UNL     1       1.929   2.441 -21.513  0.00  0.00    -0.495 OA
ATOM     25  C   UNL     1       2.574   1.318 -21.416  0.00  0.00    +0.277 C 
ENDBRANCH  13  24
TORSDOF 2
ENDMDL
MODEL 6
REMARK VINA RESULT:    -7.156      2.772      6.420
REMARK INTER + INTRA:          -8.259
REMARK INTER:                  -7.921
REMARK INTRA:                  -0.338
REMARK UNBOUND:                -0.266
REMARK  Name = CC[N@+]1(C)CCc2cc3c(c4c2[C@@H]1Cc1ccc(OC)cc1-4)OCO3                  ZINC000249692476
REMARK  5 active torsions:
REMARK  status: ('A' for Active; 'I' for Inactive)
REMARK    1  A    between atoms: C_1  and  C_2
REMARK    2  A    between atoms: C_2  and  N_3
REMARK    3  A    between atoms: N_3  and  C_4
REMARK    4  A    between atoms: C_18  and  O_19
REMARK    5  A    between atoms: O_19  and  C_20
REMARK                            x       y       z     vdW  Elec       q    Type
REMARK                         _______ _______ _______ _____ _____    ______ ____
ROOT
ATOM      1  N   UNL     1      -3.599   3.566 -23.575  0.00  0.00    +0.247 N 
ATOM      2  C   UNL     1      -4.243   3.207 -22.505  0.00  0.00    +0.138 C 
ATOM      3  C   UNL     1      -3.604   2.657 -21.516  0.00  0.00    +0.086 C 
ATOM      4  C   UNL     1      -2.321   2.465 -21.596  0.00  0.00    -0.030 A 
ATOM      5  C   UNL     1      -1.682   1.915 -20.607  0.00  0.00    +0.054 A 
ATOM      6  C   UNL     1      -0.399   1.723 -20.687  0.00  0.00    +0.167 A 
ATOM      7  C   UNL     1       0.246   2.083 -21.758  0.00  0.00    +0.174 A 
ATOM      8  O   UNL     1       1.500   1.787 -21.590  0.00  0.00    -0.452 OA
ATOM      9  C   UNL     1       1.631   1.244 -20.415  0.00  0.00    +0.466 C 
ATOM     10  C   UNL     1      -0.393   2.634 -22.747  0.00  0.00    +0.037 A 
ATOM     11  C   UNL     1       0.252   2.993 -23.818  0.00  0.00    -0.007 A 
ATOM     12  C   UNL     1       1.535   2.802 -23.898  0.00  0.00    +0.054 A 
ATOM     13  C   UNL     1       2.179   3.161 -24.969  0.00  0.00    +0.121 A 
ATOM     14  C   UNL     1       1.541   3.711 -25.958  0.00  0.00    +0.046 A 
ATOM     15  C   UNL     1       0.258   3.903 -25.877  0.00  0.00    +0.008 A 
ATOM     16  C   UNL     1      -0.387   3.543 -24.807  0.00  0.00    -0.034 A 
ATOM     17  C   UNL     1      -1.671   3.735 -24.726  0.00  0.00    +0.095 C 
ATOM     18  O   UNL     1       0.457   1.205 -19.858  0.00  0.00    -0.453 OA
ATOM     19  C   UNL     1      -1.676   2.824 -22.666  0.00  0.00    +0.015 A 
ATOM     20  C   UNL     1      -3.372   4.051 -24.760  0.00  0.00    +0.193 C 
ATOM     21  C   UNL     1      -2.314   3.375 -23.656  0.00  0.00    +0.102 C 
ENDROOT
BRANCH   1  23
ATOM     22  C   UNL     1      -5.216   3.766 -25.128  0.00  0.00    +0.060 C 
ATOM     23  C   UNL     1      -4.803   3.926 -23.906  0.00  0.00    +0.130 C 
ENDBRANCH   1  23
BRANCH  13  24
ATOM     24  O   UNL     1       3.463   2.970 -25.050  0.00  0.00    -0.495 OA
ATOM     25  C   UNL     1       4.117   2.507 -24.027  0.00  0.00    +0.277 C 
ENDBRANCH  13  24
TORSDOF 2
ENDMDL
MODEL 7
REMARK VINA RESULT:    -6.763      6.542      9.151
REMARK INTER + INTRA:          -7.820
REMARK INTER:                  -7.421
REMARK INTRA:                  -0.399
REMARK UNBOUND:                -0.266
REMARK  Name = CC[N@+]1(C)CCc2cc3c(c4c2[C@@H]1Cc1ccc(OC)cc1-4)OCO3                  ZINC000249692476
REMARK  5 active torsions:
REMARK  status: ('A' for Active; 'I' for Inactive)
REMARK    1  A    between atoms: C_1  and  C_2
REMARK    2  A    between atoms: C_2  and  N_3
REMARK    3  A    between atoms: N_3  and  C_4
REMARK    4  A    between atoms: C_18  and  O_19
REMARK    5  A    between atoms: O_19  and  C_20
REMARK                            x       y       z     vdW  Elec       q    Type
REMARK                         _______ _______ _______ _____ _____    ______ ____
ROOT
ATOM      1  N   UNL     1       2.640   4.236 -23.520  0.00  0.00    +0.247 N 
ATOM      2  C   UNL     1       2.952   3.061 -23.980  0.00  0.00    +0.138 C 
ATOM      3  C   UNL     1       4.193   2.673 -23.984  0.00  0.00    +0.086 C 
ATOM      4  C   UNL     1       5.122   3.460 -23.527  0.00  0.00    -0.030 A 
ATOM      5  C   UNL     1       6.362   3.071 -23.531  0.00  0.00    +0.054 A 
ATOM      6  C   UNL     1       7.291   3.857 -23.075  0.00  0.00    +0.167 A 
ATOM      7  C   UNL     1       6.979   5.033 -22.614  0.00  0.00    +0.174 A 
ATOM      8  O   UNL     1       8.074   5.615 -22.223  0.00  0.00    -0.452 OA
ATOM      9  C   UNL     1       9.062   4.799 -22.443  0.00  0.00    +0.466 C 
ATOM     10  C   UNL     1       5.738   5.421 -22.610  0.00  0.00    +0.037 A 
ATOM     11  C   UNL     1       5.427   6.596 -22.150  0.00  0.00    -0.007 A 
ATOM     12  C   UNL     1       6.356   7.383 -21.693  0.00  0.00    +0.054 A 
ATOM     13  C   UNL     1       6.043   8.558 -21.233  0.00  0.00    +0.121 A 
ATOM     14  C   UNL     1       4.803   8.946 -21.229  0.00  0.00    +0.046 A 
ATOM     15  C   UNL     1       3.874   8.160 -21.685  0.00  0.00    +0.008 A 
ATOM     16  C   UNL     1       4.186   6.984 -22.146  0.00  0.00    -0.034 A 
ATOM     17  C   UNL     1       3.257   6.198 -22.602  0.00  0.00    +0.095 C 
ATOM     18  O   UNL     1       8.579   3.713 -22.969  0.00  0.00    -0.453 OA
ATOM     19  C   UNL     1       4.810   4.634 -23.067  0.00  0.00    +0.015 A 
ATOM     20  C   UNL     1       1.918   5.262 -23.176  0.00  0.00    +0.193 C 
ATOM     21  C   UNL     1       3.570   5.023 -23.063  0.00  0.00    +0.102 C 
ENDROOT
BRANCH   1  23
ATOM     22  C   UNL     1       0.960   4.122 -25.014  0.00  0.00    +0.060 C 
ATOM     23  C   UNL     1       1.461   3.806 -23.857  0.00  0.00    +0.130 C 
ENDBRANCH   1  23
BRANCH  13  24
ATOM     24  O   UNL     1       6.972   9.345 -20.776  0.00  0.00    -0.495 OA
ATOM     25  C   UNL     1       8.212   8.956 -20.776  0.00  0.00    +0.277 C 
ENDBRANCH  13  24
TORSDOF 2
ENDMDL
MODEL 8
REMARK VINA RESULT:    -6.696      4.007      5.688
REMARK INTER + INTRA:          -7.746
REMARK INTER:                  -7.420
REMARK INTRA:                  -0.326
REMARK UNBOUND:                -0.266
REMARK  Name = CC[N@+]1(C)CCc2cc3c(c4c2[C@@H]1Cc1ccc(OC)cc1-4)OCO3                  ZINC000249692476
REMARK  5 active torsions:
REMARK  status: ('A' for Active; 'I' for Inactive)
REMARK    1  A    between atoms: C_1  and  C_2
REMARK    2  A    between atoms: C_2  and  N_3
REMARK    3  A    between atoms: N_3  and  C_4
REMARK    4  A    between atoms: C_18  and  O_19
REMARK    5  A    between atoms: O_19  and  C_20
REMARK                            x       y       z     vdW  Elec       q    Type
REMARK                         _______ _______ _______ _____ _____    ______ ____
ROOT
ATOM      1  N   UNL     1       4.418   6.287 -22.485  0.00  0.00    +0.247 N 
ATOM      2  C   UNL     1       5.635   5.832 -22.497  0.00  0.00    +0.138 C 
ATOM      3  C   UNL     1       5.871   4.616 -22.890  0.00  0.00    +0.086 C 
ATOM      4  C   UNL     1       4.889   3.854 -23.272  0.00  0.00    -0.030 A 
ATOM      5  C   UNL     1       5.126   2.637 -23.665  0.00  0.00    +0.054 A 
ATOM      6  C   UNL     1       4.144   1.875 -24.046  0.00  0.00    +0.167 A 
ATOM      7  C   UNL     1       2.926   2.330 -24.034  0.00  0.00    +0.174 A 
ATOM      8  O   UNL     1       2.140   1.384 -24.455  0.00  0.00    -0.452 OA
ATOM      9  C   UNL     1       2.873   0.345 -24.728  0.00  0.00    +0.466 C 
ATOM     10  C   UNL     1       2.690   3.547 -23.640  0.00  0.00    +0.037 A 
ATOM     11  C   UNL     1       1.472   4.001 -23.628  0.00  0.00    -0.007 A 
ATOM     12  C   UNL     1       0.490   3.238 -24.009  0.00  0.00    +0.054 A 
ATOM     13  C   UNL     1      -0.728   3.693 -23.997  0.00  0.00    +0.121 A 
ATOM     14  C   UNL     1      -0.964   4.909 -23.604  0.00  0.00    +0.046 A 
ATOM     15  C   UNL     1       0.017   5.671 -23.223  0.00  0.00    +0.008 A 
ATOM     16  C   UNL     1       1.236   5.217 -23.235  0.00  0.00    -0.034 A 
ATOM     17  C   UNL     1       2.217   5.979 -22.854  0.00  0.00    +0.095 C 
ATOM     18  O   UNL     1       4.111   0.649 -24.475  0.00  0.00    -0.453 OA
ATOM     19  C   UNL     1       3.672   4.308 -23.259  0.00  0.00    +0.015 A 
ATOM     20  C   UNL     1       3.420   7.104 -22.320  0.00  0.00    +0.193 C 
ATOM     21  C   UNL     1       3.435   5.524 -22.866  0.00  0.00    +0.102 C 
ENDROOT
BRANCH   1  23
ATOM     22  C   UNL     1       4.621   7.961 -20.994  0.00  0.00    +0.060 C 
ATOM     23  C   UNL     1       5.053   7.332 -22.047  0.00  0.00    +0.130 C 
ENDBRANCH   1  23
BRANCH  13  24
ATOM     24  O   UNL     1      -1.710   2.931 -24.378  0.00  0.00    -0.495 OA
ATOM     25  C   UNL     1      -2.709   2.708 -23.577  0.00  0.00    +0.277 C 
ENDBRANCH  13  24
TORSDOF 2
ENDMDL
MODEL 9
REMARK VINA RESULT:    -6.635      6.628      8.919
REMARK INTER + INTRA:          -7.677
REMARK INTER:                  -7.411
REMARK INTRA:                  -0.266
REMARK UNBOUND:                -0.266
REMARK  Name = CC[N@+]1(C)CCc2cc3c(c4c2[C@@H]1Cc1ccc(OC)cc1-4)OCO3                  ZINC000249692476
REMARK  5 active torsions:
REMARK  status: ('A' for Active; 'I' for Inactive)
REMARK    1  A    between atoms: C_1  and  C_2
REMARK    2  A    between atoms: C_2  and  N_3
REMARK    3  A    between atoms: N_3  and  C_4
REMARK    4  A    between atoms: C_18  and  O_19
REMARK    5  A    between atoms: O_19  and  C_20
REMARK                            x       y       z     vdW  Elec       q    Type
REMARK                         _______ _______ _______ _____ _____    ______ ____
ROOT
ATOM      1  N   UNL     1       5.487   8.498 -21.333  0.00  0.00    +0.247 N 
ATOM      2  C   UNL     1       6.733   8.762 -21.074  0.00  0.00    +0.138 C 
ATOM      3  C   UNL     1       7.655   7.892 -21.363  0.00  0.00    +0.086 C 
ATOM      4  C   UNL     1       7.331   6.759 -21.910  0.00  0.00    -0.030 A 
ATOM      5  C   UNL     1       8.254   5.889 -22.198  0.00  0.00    +0.054 A 
ATOM      6  C   UNL     1       7.930   4.756 -22.746  0.00  0.00    +0.167 A 
ATOM      7  C   UNL     1       6.683   4.492 -23.005  0.00  0.00    +0.174 A 
ATOM      8  O   UNL     1       6.627   3.310 -23.545  0.00  0.00    -0.452 OA
ATOM      9  C   UNL     1       7.839   2.844 -23.619  0.00  0.00    +0.466 C 
ATOM     10  C   UNL     1       5.761   5.362 -22.717  0.00  0.00    +0.037 A 
ATOM     11  C   UNL     1       4.515   5.097 -22.976  0.00  0.00    -0.007 A 
ATOM     12  C   UNL     1       4.191   3.963 -23.524  0.00  0.00    +0.054 A 
ATOM     13  C   UNL     1       2.945   3.700 -23.782  0.00  0.00    +0.121 A 
ATOM     14  C   UNL     1       2.023   4.569 -23.494  0.00  0.00    +0.046 A 
ATOM     15  C   UNL     1       2.347   5.702 -22.947  0.00  0.00    +0.008 A 
ATOM     16  C   UNL     1       3.593   5.967 -22.687  0.00  0.00    -0.034 A 
ATOM     17  C   UNL     1       3.917   7.101 -22.140  0.00  0.00    +0.095 C 
ATOM     18  O   UNL     1       8.644   3.737 -23.125  0.00  0.00    -0.453 OA
ATOM     19  C   UNL     1       6.086   6.495 -22.169  0.00  0.00    +0.015 A 
ATOM     20  C   UNL     1       4.198   8.646 -21.411  0.00  0.00    +0.193 C 
ATOM     21  C   UNL     1       5.163   7.364 -21.881  0.00  0.00    +0.102 C 
ENDROOT
BRANCH   1  23
ATOM     22  C   UNL     1       4.181  10.165 -20.570  0.00  0.00    +0.060 C 
ATOM     23  C   UNL     1       5.363   9.683 -20.813  0.00  0.00    +0.130 C 
ENDBRANCH   1  23
BRANCH  13  24
ATOM     24  O   UNL     1       2.620   2.566 -24.330  0.00  0.00    -0.495 OA
ATOM     25  C   UNL     1       3.488   1.600 -24.387  0.00  0.00    +0.277 C 
ENDBRANCH  13  24
TORSDOF 2
ENDMDL
