MODEL 1
REMARK VINA RESULT:    -8.104      0.000      0.000
REMARK INTER + INTRA:          -9.629
REMARK INTER:                  -9.858
REMARK INTRA:                   0.228
REMARK UNBOUND:                 0.607
REMARK  Name = ZINC000006556397
REMARK  8 active torsions:
REMARK  status: ('A' for Active; 'I' for Inactive)
REMARK    1  A    between atoms: C_2  and  C_3
REMARK    2  A    between atoms: C_3  and  C_4
REMARK    3  A    between atoms: C_5  and  O_6
REMARK    4  A    between atoms: C_8  and  O_9
REMARK    5  A    between atoms: O_9  and  C_10
REMARK    6  A    between atoms: C_14  and  O_15
REMARK    7  A    between atoms: O_15  and  C_16
REMARK    8  A    between atoms: C_17  and  C_18
REMARK                            x       y       z     vdW  Elec       q    Type
REMARK                         _______ _______ _______ _____ _____    ______ ____
ROOT
ATOM      1  C   UNL     1      -0.560   3.239 -23.743  0.00  0.00    +0.041 A 
ATOM      2  C   UNL     1      -0.390   3.263 -25.031  0.00  0.00    +0.127 A 
ATOM      3  C   UNL     1      -1.413   3.414 -25.819  0.00  0.00    +0.092 A 
ATOM      4  C   UNL     1      -2.606   3.541 -25.319  0.00  0.00    +0.138 A 
ATOM      5  C   UNL     1      -2.775   3.517 -24.031  0.00  0.00    +0.110 A 
ATOM      6  C   UNL     1      -3.969   3.644 -23.529  0.00  0.00    +0.238 A 
ATOM      7  C   UNL     1      -4.139   3.620 -22.241  0.00  0.00    +0.205 A 
ATOM      8  C   UNL     1      -3.116   3.469 -21.453  0.00  0.00    +0.148 A 
ATOM      9  O   UNL     1      -1.923   3.342 -21.954  0.00  0.00    -0.456 OA
ATOM     10  C   UNL     1      -3.286   3.445 -20.165  0.00  0.00    +0.090 C 
ATOM     11  O   UNL     1      -4.992   3.795 -24.317  0.00  0.00    -0.283 OA
ATOM     12  C   UNL     1      -1.752   3.366 -23.243  0.00  0.00    +0.149 A 
ENDROOT
BRANCH   7  13
ATOM     13  O   UNL     1      -5.332   3.747 -21.741  0.00  0.00    -0.489 OA
ATOM     14  C   UNL     1      -6.143   2.731 -21.728  0.00  0.00    +0.277 C 
ENDBRANCH   7  13
BRANCH   4  15
ATOM     15  O   UNL     1      -3.629   3.692 -26.107  0.00  0.00    -0.494 OA
ATOM     16  C   UNL     1      -3.515   3.437 -27.376  0.00  0.00    +0.277 C 
ENDBRANCH   4  15
BRANCH   2  17
ATOM     17  O   UNL     1       0.803   3.136 -25.532  0.00  0.00    -0.506 OA
ATOM     18  H   UNL     1       1.520   3.615 -25.164  0.00  0.00    +0.292 HD
ENDBRANCH   2  17
BRANCH   1  19
ATOM     19  C   UNL     1       0.463   3.088 -22.955  0.00  0.00    +0.069 C 
BRANCH  19  21
ATOM     20  C   UNL     1       0.874   1.520 -21.392  0.00  0.00    +0.004 C 
ATOM     21  C   UNL     1       0.869   1.895 -22.637  0.00  0.00    -0.030 C 
ENDBRANCH  19  21
ENDBRANCH   1  19
TORSDOF 5
ENDMDL
MODEL 2
REMARK VINA RESULT:    -7.694      1.346      5.363
REMARK INTER + INTRA:          -9.112
REMARK INTER:                  -9.448
REMARK INTRA:                   0.336
REMARK UNBOUND:                 0.607
REMARK  Name = ZINC000006556397
REMARK  8 active torsions:
REMARK  status: ('A' for Active; 'I' for Inactive)
REMARK    1  A    between atoms: C_2  and  C_3
REMARK    2  A    between atoms: C_3  and  C_4
REMARK    3  A    between atoms: C_5  and  O_6
REMARK    4  A    between atoms: C_8  and  O_9
REMARK    5  A    between atoms: O_9  and  C_10
REMARK    6  A    between atoms: C_14  and  O_15
REMARK    7  A    between atoms: O_15  and  C_16
REMARK    8  A    between atoms: C_17  and  C_18
REMARK                            x       y       z     vdW  Elec       q    Type
REMARK                         _______ _______ _______ _____ _____    ______ ____
ROOT
ATOM      1  C   UNL     1      -3.520   3.914 -24.418  0.00  0.00    +0.041 A 
ATOM      2  C   UNL     1      -4.474   3.824 -23.539  0.00  0.00    +0.127 A 
ATOM      3  C   UNL     1      -4.203   3.462 -22.320  0.00  0.00    +0.092 A 
ATOM      4  C   UNL     1      -2.978   3.190 -21.980  0.00  0.00    +0.138 A 
ATOM      5  C   UNL     1      -2.025   3.280 -22.858  0.00  0.00    +0.110 A 
ATOM      6  C   UNL     1      -0.799   3.008 -22.518  0.00  0.00    +0.238 A 
ATOM      7  C   UNL     1       0.154   3.098 -23.396  0.00  0.00    +0.205 A 
ATOM      8  C   UNL     1      -0.116   3.460 -24.615  0.00  0.00    +0.148 A 
ATOM      9  O   UNL     1      -1.341   3.732 -24.956  0.00  0.00    -0.456 OA
ATOM     10  C   UNL     1       0.837   3.550 -25.494  0.00  0.00    +0.090 C 
ATOM     11  O   UNL     1      -0.528   2.646 -21.299  0.00  0.00    -0.283 OA
ATOM     12  C   UNL     1      -2.296   3.642 -24.077  0.00  0.00    +0.149 A 
ENDROOT
BRANCH   7  13
ATOM     13  O   UNL     1       1.379   2.826 -23.056  0.00  0.00    -0.489 OA
ATOM     14  C   UNL     1       1.773   1.590 -22.977  0.00  0.00    +0.277 C 
ENDBRANCH   7  13
BRANCH   4  15
ATOM     15  O   UNL     1      -2.707   2.829 -20.761  0.00  0.00    -0.494 OA
ATOM     16  C   UNL     1      -3.229   3.473 -19.760  0.00  0.00    +0.277 C 
ENDBRANCH   4  15
BRANCH   2  17
ATOM     17  O   UNL     1      -5.698   4.096 -23.880  0.00  0.00    -0.506 OA
ATOM     18  H   UNL     1      -5.934   4.969 -24.125  0.00  0.00    +0.292 HD
ENDBRANCH   2  17
BRANCH   1  19
ATOM     19  C   UNL     1      -3.791   4.276 -25.637  0.00  0.00    +0.069 C 
BRANCH  19  21
ATOM     20  C   UNL     1      -3.344   3.448 -27.682  0.00  0.00    +0.004 C 
ATOM     21  C   UNL     1      -3.986   3.376 -26.554  0.00  0.00    -0.030 C 
ENDBRANCH  19  21
ENDBRANCH   1  19
TORSDOF 5
ENDMDL
MODEL 3
REMARK VINA RESULT:    -7.027      1.639      3.783
REMARK INTER + INTRA:          -8.269
REMARK INTER:                  -8.719
REMARK INTRA:                   0.450
REMARK UNBOUND:                 0.607
REMARK  Name = ZINC000006556397
REMARK  8 active torsions:
REMARK  status: ('A' for Active; 'I' for Inactive)
REMARK    1  A    between atoms: C_2  and  C_3
REMARK    2  A    between atoms: C_3  and  C_4
REMARK    3  A    between atoms: C_5  and  O_6
REMARK    4  A    between atoms: C_8  and  O_9
REMARK    5  A    between atoms: O_9  and  C_10
REMARK    6  A    between atoms: C_14  and  O_15
REMARK    7  A    between atoms: O_15  and  C_16
REMARK    8  A    between atoms: C_17  and  C_18
REMARK                            x       y       z     vdW  Elec       q    Type
REMARK                         _______ _______ _______ _____ _____    ______ ____
ROOT
ATOM      1  C   UNL     1      -0.172   2.398 -23.194  0.00  0.00    +0.041 A 
ATOM      2  C   UNL     1      -0.082   2.155 -21.921  0.00  0.00    +0.127 A 
ATOM      3  C   UNL     1      -1.122   2.308 -21.155  0.00  0.00    +0.092 A 
ATOM      4  C   UNL     1      -2.250   2.704 -21.663  0.00  0.00    +0.138 A 
ATOM      5  C   UNL     1      -2.340   2.947 -22.937  0.00  0.00    +0.110 A 
ATOM      6  C   UNL     1      -3.469   3.344 -23.445  0.00  0.00    +0.238 A 
ATOM      7  C   UNL     1      -3.559   3.587 -24.719  0.00  0.00    +0.205 A 
ATOM      8  C   UNL     1      -2.519   3.433 -25.485  0.00  0.00    +0.148 A 
ATOM      9  O   UNL     1      -1.391   3.037 -24.977  0.00  0.00    -0.456 OA
ATOM     10  C   UNL     1      -2.609   3.676 -26.758  0.00  0.00    +0.090 C 
ATOM     11  O   UNL     1      -4.509   3.497 -22.680  0.00  0.00    -0.283 OA
ATOM     12  C   UNL     1      -1.301   2.794 -23.702  0.00  0.00    +0.149 A 
ENDROOT
BRANCH   7  13
ATOM     13  O   UNL     1      -4.688   3.983 -25.227  0.00  0.00    -0.489 OA
ATOM     14  C   UNL     1      -5.497   3.120 -25.766  0.00  0.00    +0.277 C 
ENDBRANCH   7  13
BRANCH   4  15
ATOM     15  O   UNL     1      -3.290   2.857 -20.897  0.00  0.00    -0.494 OA
ATOM     16  C   UNL     1      -3.205   3.586 -19.825  0.00  0.00    +0.277 C 
ENDBRANCH   4  15
BRANCH   2  17
ATOM     17  O   UNL     1       1.047   1.759 -21.413  0.00  0.00    -0.506 OA
ATOM     18  H   UNL     1       1.366   2.144 -20.621  0.00  0.00    +0.292 HD
ENDBRANCH   2  17
BRANCH   1  19
ATOM     19  C   UNL     1       0.868   2.245 -23.960  0.00  0.00    +0.069 C 
BRANCH  19  21
ATOM     20  C   UNL     1       2.867   3.280 -24.006  0.00  0.00    +0.004 C 
ATOM     21  C   UNL     1       1.596   3.272 -24.281  0.00  0.00    -0.030 C 
ENDBRANCH  19  21
ENDBRANCH   1  19
TORSDOF 5
ENDMDL
MODEL 4
REMARK VINA RESULT:    -6.847      1.365      4.002
REMARK INTER + INTRA:          -8.042
REMARK INTER:                  -8.900
REMARK INTRA:                   0.857
REMARK UNBOUND:                 0.607
REMARK  Name = ZINC000006556397
REMARK  8 active torsions:
REMARK  status: ('A' for Active; 'I' for Inactive)
REMARK    1  A    between atoms: C_2  and  C_3
REMARK    2  A    between atoms: C_3  and  C_4
REMARK    3  A    between atoms: C_5  and  O_6
REMARK    4  A    between atoms: C_8  and  O_9
REMARK    5  A    between atoms: O_9  and  C_10
REMARK    6  A    between atoms: C_14  and  O_15
REMARK    7  A    between atoms: O_15  and  C_16
REMARK    8  A    between atoms: C_17  and  C_18
REMARK                            x       y       z     vdW  Elec       q    Type
REMARK                         _______ _______ _______ _____ _____    ______ ____
ROOT
ATOM      1  C   UNL     1      -0.971   3.270 -24.971  0.00  0.00    +0.041 A 
ATOM      2  C   UNL     1       0.290   2.969 -25.060  0.00  0.00    +0.127 A 
ATOM      3  C   UNL     1       0.927   2.521 -24.019  0.00  0.00    +0.092 A 
ATOM      4  C   UNL     1       0.303   2.376 -22.888  0.00  0.00    +0.138 A 
ATOM      5  C   UNL     1      -0.958   2.678 -22.798  0.00  0.00    +0.110 A 
ATOM      6  C   UNL     1      -1.583   2.532 -21.667  0.00  0.00    +0.238 A 
ATOM      7  C   UNL     1      -2.844   2.834 -21.578  0.00  0.00    +0.205 A 
ATOM      8  C   UNL     1      -3.481   3.281 -22.619  0.00  0.00    +0.148 A 
ATOM      9  O   UNL     1      -2.857   3.427 -23.750  0.00  0.00    -0.456 OA
ATOM     10  C   UNL     1      -4.742   3.583 -22.530  0.00  0.00    +0.090 C 
ATOM     11  O   UNL     1      -0.947   2.085 -20.626  0.00  0.00    -0.283 OA
ATOM     12  C   UNL     1      -1.595   3.125 -23.840  0.00  0.00    +0.149 A 
ENDROOT
BRANCH   7  13
ATOM     13  O   UNL     1      -3.469   2.689 -20.447  0.00  0.00    -0.489 OA
ATOM     14  C   UNL     1      -3.373   3.604 -19.529  0.00  0.00    +0.277 C 
ENDBRANCH   7  13
BRANCH   4  15
ATOM     15  O   UNL     1       0.939   1.929 -21.846  0.00  0.00    -0.494 OA
ATOM     16  C   UNL     1       2.063   1.292 -21.995  0.00  0.00    +0.277 C 
ENDBRANCH   4  15
BRANCH   2  17
ATOM     17  O   UNL     1       0.914   3.114 -26.191  0.00  0.00    -0.506 OA
ATOM     18  H   UNL     1       1.644   2.563 -26.398  0.00  0.00    +0.292 HD
ENDBRANCH   2  17
BRANCH   1  19
ATOM     19  C   UNL     1      -1.607   3.718 -26.012  0.00  0.00    +0.069 C 
BRANCH  19  21
ATOM     20  C   UNL     1      -3.308   3.424 -27.458  0.00  0.00    +0.004 C 
ATOM     21  C   UNL     1      -2.816   3.309 -26.260  0.00  0.00    -0.030 C 
ENDBRANCH  19  21
ENDBRANCH   1  19
TORSDOF 5
ENDMDL
MODEL 5
REMARK VINA RESULT:    -6.547      3.870      6.888
REMARK INTER + INTRA:          -7.663
REMARK INTER:                  -7.949
REMARK INTRA:                   0.285
REMARK UNBOUND:                 0.607
REMARK  Name = ZINC000006556397
REMARK  8 active torsions:
REMARK  status: ('A' for Active; 'I' for Inactive)
REMARK    1  A    between atoms: C_2  and  C_3
REMARK    2  A    between atoms: C_3  and  C_4
REMARK    3  A    between atoms: C_5  and  O_6
REMARK    4  A    between atoms: C_8  and  O_9
REMARK    5  A    between atoms: O_9  and  C_10
REMARK    6  A    between atoms: C_14  and  O_15
REMARK    7  A    between atoms: O_15  and  C_16
REMARK    8  A    between atoms: C_17  and  C_18
REMARK                            x       y       z     vdW  Elec       q    Type
REMARK                         _______ _______ _______ _____ _____    ______ ____
ROOT
ATOM      1  C   UNL     1       2.307   4.560 -23.169  0.00  0.00    +0.041 A 
ATOM      2  C   UNL     1       1.016   4.463 -23.274  0.00  0.00    +0.127 A 
ATOM      3  C   UNL     1       0.426   3.331 -23.024  0.00  0.00    +0.092 A 
ATOM      4  C   UNL     1       1.129   2.297 -22.671  0.00  0.00    +0.138 A 
ATOM      5  C   UNL     1       2.421   2.394 -22.567  0.00  0.00    +0.110 A 
ATOM      6  C   UNL     1       3.125   1.358 -22.213  0.00  0.00    +0.238 A 
ATOM      7  C   UNL     1       4.416   1.455 -22.109  0.00  0.00    +0.205 A 
ATOM      8  C   UNL     1       5.006   2.587 -22.358  0.00  0.00    +0.148 A 
ATOM      9  O   UNL     1       4.303   3.622 -22.712  0.00  0.00    -0.456 OA
ATOM     10  C   UNL     1       6.297   2.684 -22.254  0.00  0.00    +0.090 C 
ATOM     11  O   UNL     1       2.536   0.227 -21.964  0.00  0.00    -0.283 OA
ATOM     12  C   UNL     1       3.010   3.525 -22.816  0.00  0.00    +0.149 A 
ENDROOT
BRANCH   7  13
ATOM     13  O   UNL     1       5.119   0.421 -21.756  0.00  0.00    -0.489 OA
ATOM     14  C   UNL     1       5.184   0.076 -20.504  0.00  0.00    +0.277 C 
ENDBRANCH   7  13
BRANCH   4  15
ATOM     15  O   UNL     1       0.540   1.165 -22.422  0.00  0.00    -0.494 OA
ATOM     16  C   UNL     1      -0.589   1.148 -21.779  0.00  0.00    +0.277 C 
ENDBRANCH   4  15
BRANCH   2  17
ATOM     17  O   UNL     1       0.313   5.498 -23.627  0.00  0.00    -0.506 OA
ATOM     18  H   UNL     1       0.144   5.663 -24.534  0.00  0.00    +0.292 HD
ENDBRANCH   2  17
BRANCH   1  19
ATOM     19  C   UNL     1       2.897   5.692 -23.419  0.00  0.00    +0.069 C 
BRANCH  19  21
ATOM     20  C   UNL     1       4.273   7.022 -22.233  0.00  0.00    +0.004 C 
ATOM     21  C   UNL     1       3.083   6.552 -22.462  0.00  0.00    -0.030 C 
ENDBRANCH  19  21
ENDBRANCH   1  19
TORSDOF 5
ENDMDL
MODEL 6
REMARK VINA RESULT:    -6.230      3.675      6.321
REMARK INTER + INTRA:          -7.263
REMARK INTER:                  -7.609
REMARK INTRA:                   0.346
REMARK UNBOUND:                 0.607
REMARK  Name = ZINC000006556397
REMARK  8 active torsions:
REMARK  status: ('A' for Active; 'I' for Inactive)
REMARK    1  A    between atoms: C_2  and  C_3
REMARK    2  A    between atoms: C_3  and  C_4
REMARK    3  A    between atoms: C_5  and  O_6
REMARK    4  A    between atoms: C_8  and  O_9
REMARK    5  A    between atoms: O_9  and  C_10
REMARK    6  A    between atoms: C_14  and  O_15
REMARK    7  A    between atoms: O_15  and  C_16
REMARK    8  A    between atoms: C_17  and  C_18
REMARK                            x       y       z     vdW  Elec       q    Type
REMARK                         _______ _______ _______ _____ _____    ______ ____
ROOT
ATOM      1  C   UNL     1       3.960   4.196 -22.853  0.00  0.00    +0.041 A 
ATOM      2  C   UNL     1       5.064   3.619 -22.482  0.00  0.00    +0.127 A 
ATOM      3  C   UNL     1       5.053   2.375 -22.105  0.00  0.00    +0.092 A 
ATOM      4  C   UNL     1       3.937   1.708 -22.100  0.00  0.00    +0.138 A 
ATOM      5  C   UNL     1       2.833   2.285 -22.470  0.00  0.00    +0.110 A 
ATOM      6  C   UNL     1       1.717   1.618 -22.465  0.00  0.00    +0.238 A 
ATOM      7  C   UNL     1       0.613   2.195 -22.836  0.00  0.00    +0.205 A 
ATOM      8  C   UNL     1       0.625   3.439 -23.213  0.00  0.00    +0.148 A 
ATOM      9  O   UNL     1       1.740   4.106 -23.219  0.00  0.00    -0.456 OA
ATOM     10  C   UNL     1      -0.479   4.016 -23.584  0.00  0.00    +0.090 C 
ATOM     11  O   UNL     1       1.705   0.374 -22.088  0.00  0.00    -0.283 OA
ATOM     12  C   UNL     1       2.845   3.529 -22.847  0.00  0.00    +0.149 A 
ENDROOT
BRANCH   7  13
ATOM     13  O   UNL     1      -0.503   1.528 -22.830  0.00  0.00    -0.489 OA
ATOM     14  C   UNL     1      -1.210   1.453 -21.741  0.00  0.00    +0.277 C 
ENDBRANCH   7  13
BRANCH   4  15
ATOM     15  O   UNL     1       3.925   0.463 -21.723  0.00  0.00    -0.494 OA
ATOM     16  C   UNL     1       4.692   0.072 -20.749  0.00  0.00    +0.277 C 
ENDBRANCH   4  15
BRANCH   2  17
ATOM     17  O   UNL     1       6.180   4.286 -22.488  0.00  0.00    -0.506 OA
ATOM     18  H   UNL     1       6.760   4.236 -21.754  0.00  0.00    +0.292 HD
ENDBRANCH   2  17
BRANCH   1  19
ATOM     19  C   UNL     1       3.972   5.440 -23.230  0.00  0.00    +0.069 C 
BRANCH  19  21
ATOM     20  C   UNL     1       4.157   7.371 -22.088  0.00  0.00    +0.004 C 
ATOM     21  C   UNL     1       3.445   6.354 -22.472  0.00  0.00    -0.030 C 
ENDBRANCH  19  21
ENDBRANCH   1  19
TORSDOF 5
ENDMDL
MODEL 7
REMARK VINA RESULT:    -6.124      4.095      7.006
REMARK INTER + INTRA:          -7.129
REMARK INTER:                  -7.447
REMARK INTRA:                   0.318
REMARK UNBOUND:                 0.607
REMARK  Name = ZINC000006556397
REMARK  8 active torsions:
REMARK  status: ('A' for Active; 'I' for Inactive)
REMARK    1  A    between atoms: C_2  and  C_3
REMARK    2  A    between atoms: C_3  and  C_4
REMARK    3  A    between atoms: C_5  and  O_6
REMARK    4  A    between atoms: C_8  and  O_9
REMARK    5  A    between atoms: O_9  and  C_10
REMARK    6  A    between atoms: C_14  and  O_15
REMARK    7  A    between atoms: O_15  and  C_16
REMARK    8  A    between atoms: C_17  and  C_18
REMARK                            x       y       z     vdW  Elec       q    Type
REMARK                         _______ _______ _______ _____ _____    ______ ____
ROOT
ATOM      1  C   UNL     1       2.779   1.704 -22.429  0.00  0.00    +0.041 A 
ATOM      2  C   UNL     1       1.491   1.753 -22.599  0.00  0.00    +0.127 A 
ATOM      3  C   UNL     1       0.918   2.881 -22.896  0.00  0.00    +0.092 A 
ATOM      4  C   UNL     1       1.632   3.960 -23.022  0.00  0.00    +0.138 A 
ATOM      5  C   UNL     1       2.919   3.911 -22.852  0.00  0.00    +0.110 A 
ATOM      6  C   UNL     1       3.634   4.990 -22.978  0.00  0.00    +0.238 A 
ATOM      7  C   UNL     1       4.922   4.940 -22.807  0.00  0.00    +0.205 A 
ATOM      8  C   UNL     1       5.495   3.812 -22.511  0.00  0.00    +0.148 A 
ATOM      9  O   UNL     1       4.781   2.733 -22.384  0.00  0.00    -0.456 OA
ATOM     10  C   UNL     1       6.783   3.762 -22.340  0.00  0.00    +0.090 C 
ATOM     11  O   UNL     1       3.061   6.118 -23.275  0.00  0.00    -0.283 OA
ATOM     12  C   UNL     1       3.493   2.782 -22.555  0.00  0.00    +0.149 A 
ENDROOT
BRANCH   7  13
ATOM     13  O   UNL     1       5.636   6.019 -22.934  0.00  0.00    -0.489 OA
ATOM     14  C   UNL     1       5.795   6.816 -21.919  0.00  0.00    +0.277 C 
ENDBRANCH   7  13
BRANCH   4  15
ATOM     15  O   UNL     1       1.059   5.088 -23.319  0.00  0.00    -0.494 OA
ATOM     16  C   UNL     1      -0.236   5.191 -23.275  0.00  0.00    +0.277 C 
ENDBRANCH   4  15
BRANCH   2  17
ATOM     17  O   UNL     1       0.777   0.674 -22.473  0.00  0.00    -0.506 OA
ATOM     18  H   UNL     1       1.053  -0.005 -21.889  0.00  0.00    +0.292 HD
ENDBRANCH   2  17
BRANCH   1  19
ATOM     19  C   UNL     1       3.352   0.575 -22.132  0.00  0.00    +0.069 C 
BRANCH  19  21
ATOM     20  C   UNL     1       4.939  -0.013 -20.647  0.00  0.00    +0.004 C 
ATOM     21  C   UNL     1       3.713   0.332 -20.907  0.00  0.00    -0.030 C 
ENDBRANCH  19  21
ENDBRANCH   1  19
TORSDOF 5
ENDMDL
MODEL 8
REMARK VINA RESULT:    -5.987      4.000      7.415
REMARK INTER + INTRA:          -6.955
REMARK INTER:                  -7.562
REMARK INTRA:                   0.607
REMARK UNBOUND:                 0.607
REMARK  Name = ZINC000006556397
REMARK  8 active torsions:
REMARK  status: ('A' for Active; 'I' for Inactive)
REMARK    1  A    between atoms: C_2  and  C_3
REMARK    2  A    between atoms: C_3  and  C_4
REMARK    3  A    between atoms: C_5  and  O_6
REMARK    4  A    between atoms: C_8  and  O_9
REMARK    5  A    between atoms: O_9  and  C_10
REMARK    6  A    between atoms: C_14  and  O_15
REMARK    7  A    between atoms: O_15  and  C_16
REMARK    8  A    between atoms: C_17  and  C_18
REMARK                            x       y       z     vdW  Elec       q    Type
REMARK                         _______ _______ _______ _____ _____    ______ ____
ROOT
ATOM      1  C   UNL     1       1.460   3.904 -23.721  0.00  0.00    +0.041 A 
ATOM      2  C   UNL     1       1.325   2.631 -23.949  0.00  0.00    +0.127 A 
ATOM      3  C   UNL     1       2.320   1.823 -23.729  0.00  0.00    +0.092 A 
ATOM      4  C   UNL     1       3.449   2.288 -23.282  0.00  0.00    +0.138 A 
ATOM      5  C   UNL     1       3.583   3.560 -23.055  0.00  0.00    +0.110 A 
ATOM      6  C   UNL     1       4.712   4.026 -22.607  0.00  0.00    +0.238 A 
ATOM      7  C   UNL     1       4.846   5.298 -22.380  0.00  0.00    +0.205 A 
ATOM      8  C   UNL     1       3.852   6.106 -22.599  0.00  0.00    +0.148 A 
ATOM      9  O   UNL     1       2.723   5.642 -23.046  0.00  0.00    -0.456 OA
ATOM     10  C   UNL     1       3.986   7.379 -22.371  0.00  0.00    +0.090 C 
ATOM     11  O   UNL     1       5.707   3.217 -22.388  0.00  0.00    -0.283 OA
ATOM     12  C   UNL     1       2.588   4.368 -23.274  0.00  0.00    +0.149 A 
ENDROOT
BRANCH   7  13
ATOM     13  O   UNL     1       5.975   5.762 -21.933  0.00  0.00    -0.489 OA
ATOM     14  C   UNL     1       7.003   5.844 -22.724  0.00  0.00    +0.277 C 
ENDBRANCH   7  13
BRANCH   4  15
ATOM     15  O   UNL     1       4.443   1.480 -23.063  0.00  0.00    -0.494 OA
ATOM     16  C   UNL     1       4.317   0.512 -22.205  0.00  0.00    +0.277 C 
ENDBRANCH   4  15
BRANCH   2  17
ATOM     17  O   UNL     1       0.197   2.167 -24.396  0.00  0.00    -0.506 OA
ATOM     18  H   UNL     1      -0.529   2.057 -23.813  0.00  0.00    +0.292 HD
ENDBRANCH   2  17
BRANCH   1  19
ATOM     19  C   UNL     1       0.465   4.712 -23.940  0.00  0.00    +0.069 C 
BRANCH  19  21
ATOM     20  C   UNL     1      -1.713   4.772 -23.374  0.00  0.00    +0.004 C 
ATOM     21  C   UNL     1      -0.460   4.863 -23.040  0.00  0.00    -0.030 C 
ENDBRANCH  19  21
ENDBRANCH   1  19
TORSDOF 5
ENDMDL
MODEL 9
REMARK VINA RESULT:    -5.975      1.973      6.031
REMARK INTER + INTRA:          -6.940
REMARK INTER:                  -8.016
REMARK INTRA:                   1.076
REMARK UNBOUND:                 0.607
REMARK  Name = ZINC000006556397
REMARK  8 active torsions:
REMARK  status: ('A' for Active; 'I' for Inactive)
REMARK    1  A    between atoms: C_2  and  C_3
REMARK    2  A    between atoms: C_3  and  C_4
REMARK    3  A    between atoms: C_5  and  O_6
REMARK    4  A    between atoms: C_8  and  O_9
REMARK    5  A    between atoms: O_9  and  C_10
REMARK    6  A    between atoms: C_14  and  O_15
REMARK    7  A    between atoms: O_15  and  C_16
REMARK    8  A    between atoms: C_17  and  C_18
REMARK                            x       y       z     vdW  Elec       q    Type
REMARK                         _______ _______ _______ _____ _____    ______ ____
ROOT
ATOM      1  C   UNL     1      -1.993   3.347 -22.904  0.00  0.00    +0.041 A 
ATOM      2  C   UNL     1      -2.363   2.756 -21.807  0.00  0.00    +0.127 A 
ATOM      3  C   UNL     1      -1.534   1.977 -21.178  0.00  0.00    +0.092 A 
ATOM      4  C   UNL     1      -0.335   1.790 -21.644  0.00  0.00    +0.138 A 
ATOM      5  C   UNL     1       0.035   2.382 -22.741  0.00  0.00    +0.110 A 
ATOM      6  C   UNL     1       1.234   2.195 -23.208  0.00  0.00    +0.238 A 
ATOM      7  C   UNL     1       1.603   2.787 -24.305  0.00  0.00    +0.205 A 
ATOM      8  C   UNL     1       0.774   3.565 -24.935  0.00  0.00    +0.148 A 
ATOM      9  O   UNL     1      -0.424   3.752 -24.468  0.00  0.00    -0.456 OA
ATOM     10  C   UNL     1       1.144   4.157 -26.031  0.00  0.00    +0.090 C 
ATOM     11  O   UNL     1       2.063   1.416 -22.579  0.00  0.00    -0.283 OA
ATOM     12  C   UNL     1      -0.794   3.160 -23.371  0.00  0.00    +0.149 A 
ENDROOT
BRANCH   7  13
ATOM     13  O   UNL     1       2.802   2.600 -24.772  0.00  0.00    -0.489 OA
ATOM     14  C   UNL     1       3.836   2.975 -24.079  0.00  0.00    +0.277 C 
ENDBRANCH   7  13
BRANCH   4  15
ATOM     15  O   UNL     1       0.494   1.012 -21.015  0.00  0.00    -0.494 OA
ATOM     16  C   UNL     1       1.102   1.437 -19.947  0.00  0.00    +0.277 C 
ENDBRANCH   4  15
BRANCH   2  17
ATOM     17  O   UNL     1      -3.561   2.942 -21.341  0.00  0.00    -0.506 OA
ATOM     18  H   UNL     1      -3.922   2.341 -20.719  0.00  0.00    +0.292 HD
ENDBRANCH   2  17
BRANCH   1  19
ATOM     19  C   UNL     1      -2.822   4.126 -23.534  0.00  0.00    +0.069 C 
BRANCH  19  21
ATOM     20  C   UNL     1      -4.804   4.103 -24.602  0.00  0.00    +0.004 C 
ATOM     21  C   UNL     1      -3.598   3.639 -24.456  0.00  0.00    -0.030 C 
ENDBRANCH  19  21
ENDBRANCH   1  19
TORSDOF 5
ENDMDL
