MODEL 1
REMARK VINA RESULT:    -9.403      0.000      0.000
REMARK INTER + INTRA:          -9.677
REMARK INTER:                  -9.677
REMARK INTRA:                   0.000
REMARK UNBOUND:                 0.000
REMARK  Name = ZINC000004104724
REMARK  4 active torsions:
REMARK  status: ('A' for Active; 'I' for Inactive)
REMARK    1  A    between atoms: C_1  and  C_2
REMARK    2  A    between atoms: C_2  and  C_3
REMARK    3  A    between atoms: C_12  and  C_13
REMARK    4  A    between atoms: C_12  and  O_14
REMARK                            x       y       z     vdW  Elec       q    Type
REMARK                         _______ _______ _______ _____ _____    ______ ____
ROOT
ATOM      1  C   UNL     1      -5.488   3.337 -22.132  0.00  0.00    +0.011 C 
ATOM      2  C   UNL     1      -4.322   2.901 -21.759  0.00  0.00    -0.028 C 
ATOM      3  C   UNL     1      -3.067   2.570 -21.814  0.00  0.00    -0.001 C 
ATOM      4  C   UNL     1      -1.831   2.188 -21.683  0.00  0.00    +0.012 C 
ATOM      5  C   UNL     1      -0.882   2.197 -22.571  0.00  0.00    +0.075 C 
ATOM      6  C   UNL     1      -0.932   2.590 -23.809  0.00  0.00    +0.137 C 
ATOM      7  C   UNL     1      -1.946   3.071 -24.465  0.00  0.00    +0.061 C 
ATOM      8  C   UNL     1      -1.885   3.436 -25.711  0.00  0.00    +0.014 C 
ATOM      9  C   UNL     1      -3.060   3.868 -26.062  0.00  0.00    +0.035 C 
ATOM     10  C   UNL     1      -3.848   3.771 -25.032  0.00  0.00    +0.067 C 
ATOM     11  C   UNL     1      -4.822   3.777 -24.171  0.00  0.00    +0.041 C 
ATOM     12  C   UNL     1      -3.160   3.279 -24.045  0.00  0.00    +0.034 C 
ATOM     13  O   UNL     1       0.177   2.488 -24.479  0.00  0.00    -0.297 OA
ATOM     14  C   UNL     1      -4.582   2.594 -20.522  0.00  0.00    +0.011 C 
ATOM     15  C   UNL     1      -3.658   3.056 -22.866  0.00  0.00    +0.005 C 
ENDROOT
BRANCH  10  16
ATOM     16  O   UNL     1      -4.740   4.265 -25.838  0.00  0.00    -0.389 OA
ATOM     17  H   UNL     1      -5.618   3.931 -25.593  0.00  0.00    +0.210 HD
ENDBRANCH  10  16
TORSDOF 1
ENDMDL
MODEL 2
REMARK VINA RESULT:    -9.172      1.494      3.487
REMARK INTER + INTRA:          -9.440
REMARK INTER:                  -9.440
REMARK INTRA:                   0.000
REMARK UNBOUND:                 0.000
REMARK  Name = ZINC000004104724
REMARK  4 active torsions:
REMARK  status: ('A' for Active; 'I' for Inactive)
REMARK    1  A    between atoms: C_1  and  C_2
REMARK    2  A    between atoms: C_2  and  C_3
REMARK    3  A    between atoms: C_12  and  C_13
REMARK    4  A    between atoms: C_12  and  O_14
REMARK                            x       y       z     vdW  Elec       q    Type
REMARK                         _______ _______ _______ _____ _____    ______ ____
ROOT
ATOM      1  C   UNL     1      -4.709   3.903 -25.674  0.00  0.00    +0.011 C 
ATOM      2  C   UNL     1      -3.463   3.568 -25.521  0.00  0.00    -0.028 C 
ATOM      3  C   UNL     1      -2.360   3.198 -24.942  0.00  0.00    -0.001 C 
ATOM      4  C   UNL     1      -1.177   2.837 -24.541  0.00  0.00    +0.012 C 
ATOM      5  C   UNL     1      -0.786   2.542 -23.337  0.00  0.00    +0.075 C 
ATOM      6  C   UNL     1      -1.478   2.534 -22.237  0.00  0.00    +0.137 C 
ATOM      7  C   UNL     1      -2.736   2.821 -22.070  0.00  0.00    +0.061 C 
ATOM      8  C   UNL     1      -3.332   2.780 -20.916  0.00  0.00    +0.014 C 
ATOM      9  C   UNL     1      -4.575   3.119 -21.093  0.00  0.00    +0.035 C 
ATOM     10  C   UNL     1      -4.747   3.369 -22.358  0.00  0.00    +0.067 C 
ATOM     11  C   UNL     1      -5.174   3.671 -23.547  0.00  0.00    +0.041 C 
ATOM     12  C   UNL     1      -3.610   3.185 -22.961  0.00  0.00    +0.034 C 
ATOM     13  O   UNL     1      -0.829   2.197 -21.163  0.00  0.00    -0.297 OA
ATOM     14  C   UNL     1      -3.051   3.666 -26.750  0.00  0.00    +0.011 C 
ATOM     15  C   UNL     1      -3.443   3.353 -24.239  0.00  0.00    +0.005 C 
ENDROOT
BRANCH  10  16
ATOM     16  O   UNL     1      -5.973   3.617 -22.003  0.00  0.00    -0.389 OA
ATOM     17  H   UNL     1      -6.264   4.449 -22.408  0.00  0.00    +0.210 HD
ENDBRANCH  10  16
TORSDOF 1
ENDMDL
MODEL 3
REMARK VINA RESULT:    -9.158      1.334      3.371
REMARK INTER + INTRA:          -9.426
REMARK INTER:                  -9.426
REMARK INTRA:                   0.000
REMARK UNBOUND:                 0.000
REMARK  Name = ZINC000004104724
REMARK  4 active torsions:
REMARK  status: ('A' for Active; 'I' for Inactive)
REMARK    1  A    between atoms: C_1  and  C_2
REMARK    2  A    between atoms: C_2  and  C_3
REMARK    3  A    between atoms: C_12  and  C_13
REMARK    4  A    between atoms: C_12  and  O_14
REMARK                            x       y       z     vdW  Elec       q    Type
REMARK                         _______ _______ _______ _____ _____    ______ ____
ROOT
ATOM      1  C   UNL     1       0.072   2.206 -23.030  0.00  0.00    +0.011 C 
ATOM      2  C   UNL     1      -0.903   2.247 -22.172  0.00  0.00    -0.028 C 
ATOM      3  C   UNL     1      -2.094   2.431 -21.684  0.00  0.00    -0.001 C 
ATOM      4  C   UNL     1      -3.208   2.555 -21.026  0.00  0.00    +0.012 C 
ATOM      5  C   UNL     1      -4.366   2.954 -21.462  0.00  0.00    +0.075 C 
ATOM      6  C   UNL     1      -4.696   3.327 -22.663  0.00  0.00    +0.137 C 
ATOM      7  C   UNL     1      -3.949   3.393 -23.725  0.00  0.00    +0.061 C 
ATOM      8  C   UNL     1      -4.386   3.783 -24.885  0.00  0.00    +0.014 C 
ATOM      9  C   UNL     1      -3.395   3.734 -25.726  0.00  0.00    +0.035 C 
ATOM     10  C   UNL     1      -2.345   3.313 -25.084  0.00  0.00    +0.067 C 
ATOM     11  C   UNL     1      -1.173   2.920 -24.685  0.00  0.00    +0.041 C 
ATOM     12  C   UNL     1      -2.687   3.102 -23.848  0.00  0.00    +0.034 C 
ATOM     13  O   UNL     1      -5.937   3.680 -22.823  0.00  0.00    -0.297 OA
ATOM     14  C   UNL     1      -0.284   1.833 -21.107  0.00  0.00    +0.011 C 
ATOM     15  C   UNL     1      -1.862   2.674 -22.940  0.00  0.00    +0.005 C 
ENDROOT
BRANCH  10  16
ATOM     16  O   UNL     1      -1.757   3.442 -26.237  0.00  0.00    -0.389 OA
ATOM     17  H   UNL     1      -2.070   2.747 -26.838  0.00  0.00    +0.210 HD
ENDBRANCH  10  16
TORSDOF 1
ENDMDL
MODEL 4
REMARK VINA RESULT:    -9.108      1.598      4.045
REMARK INTER + INTRA:          -9.374
REMARK INTER:                  -9.374
REMARK INTRA:                   0.000
REMARK UNBOUND:                 0.000
REMARK  Name = ZINC000004104724
REMARK  4 active torsions:
REMARK  status: ('A' for Active; 'I' for Inactive)
REMARK    1  A    between atoms: C_1  and  C_2
REMARK    2  A    between atoms: C_2  and  C_3
REMARK    3  A    between atoms: C_12  and  C_13
REMARK    4  A    between atoms: C_12  and  O_14
REMARK                            x       y       z     vdW  Elec       q    Type
REMARK                         _______ _______ _______ _____ _____    ______ ____
ROOT
ATOM      1  C   UNL     1      -0.752   1.878 -21.756  0.00  0.00    +0.011 C 
ATOM      2  C   UNL     1      -0.823   2.406 -22.941  0.00  0.00    -0.028 C 
ATOM      3  C   UNL     1      -1.320   2.990 -23.991  0.00  0.00    -0.001 C 
ATOM      4  C   UNL     1      -1.639   3.558 -25.116  0.00  0.00    +0.012 C 
ATOM      5  C   UNL     1      -2.792   4.026 -25.489  0.00  0.00    +0.075 C 
ATOM      6  C   UNL     1      -3.913   4.043 -24.830  0.00  0.00    +0.137 C 
ATOM      7  C   UNL     1      -4.156   3.594 -23.634  0.00  0.00    +0.061 C 
ATOM      8  C   UNL     1      -5.324   3.662 -23.067  0.00  0.00    +0.014 C 
ATOM      9  C   UNL     1      -5.229   3.128 -21.885  0.00  0.00    +0.035 C 
ATOM     10  C   UNL     1      -4.001   2.730 -21.721  0.00  0.00    +0.067 C 
ATOM     11  C   UNL     1      -2.864   2.252 -21.314  0.00  0.00    +0.041 C 
ATOM     12  C   UNL     1      -3.339   3.018 -22.802  0.00  0.00    +0.034 C 
ATOM     13  O   UNL     1      -4.923   4.578 -25.448  0.00  0.00    -0.297 OA
ATOM     14  C   UNL     1       0.406   2.246 -23.333  0.00  0.00    +0.011 C 
ATOM     15  C   UNL     1      -2.077   2.749 -22.961  0.00  0.00    +0.005 C 
ENDROOT
BRANCH  10  16
ATOM     16  O   UNL     1      -4.426   2.343 -20.555  0.00  0.00    -0.389 OA
ATOM     17  H   UNL     1      -4.226   1.401 -20.435  0.00  0.00    +0.210 HD
ENDBRANCH  10  16
TORSDOF 1
ENDMDL
MODEL 5
REMARK VINA RESULT:    -8.784      1.546      3.033
REMARK INTER + INTRA:          -9.040
REMARK INTER:                  -9.040
REMARK INTRA:                   0.000
REMARK UNBOUND:                 0.000
REMARK  Name = ZINC000004104724
REMARK  4 active torsions:
REMARK  status: ('A' for Active; 'I' for Inactive)
REMARK    1  A    between atoms: C_1  and  C_2
REMARK    2  A    between atoms: C_2  and  C_3
REMARK    3  A    between atoms: C_12  and  C_13
REMARK    4  A    between atoms: C_12  and  O_14
REMARK                            x       y       z     vdW  Elec       q    Type
REMARK                         _______ _______ _______ _____ _____    ______ ____
ROOT
ATOM      1  C   UNL     1      -3.776   4.141 -25.381  0.00  0.00    +0.011 C 
ATOM      2  C   UNL     1      -3.887   3.728 -24.154  0.00  0.00    -0.028 C 
ATOM      3  C   UNL     1      -3.558   3.241 -22.994  0.00  0.00    -0.001 C 
ATOM      4  C   UNL     1      -3.417   2.778 -21.788  0.00  0.00    +0.012 C 
ATOM      5  C   UNL     1      -2.341   2.332 -21.212  0.00  0.00    +0.075 C 
ATOM      6  C   UNL     1      -1.139   2.237 -21.700  0.00  0.00    +0.137 C 
ATOM      7  C   UNL     1      -0.718   2.565 -22.885  0.00  0.00    +0.061 C 
ATOM      8  C   UNL     1       0.515   2.427 -23.271  0.00  0.00    +0.014 C 
ATOM      9  C   UNL     1       0.602   2.846 -24.499  0.00  0.00    +0.035 C 
ATOM     10  C   UNL     1      -0.579   3.243 -24.872  0.00  0.00    +0.067 C 
ATOM     11  C   UNL     1      -1.634   3.696 -25.480  0.00  0.00    +0.041 C 
ATOM     12  C   UNL     1      -1.394   3.070 -23.875  0.00  0.00    +0.034 C 
ATOM     13  O   UNL     1      -0.241   1.749 -20.897  0.00  0.00    -0.297 OA
ATOM     14  C   UNL     1      -5.154   3.942 -23.958  0.00  0.00    +0.011 C 
ATOM     15  C   UNL     1      -2.658   3.370 -23.924  0.00  0.00    +0.005 C 
ENDROOT
BRANCH  10  16
ATOM     16  O   UNL     1       0.016   3.511 -25.997  0.00  0.00    -0.389 OA
ATOM     17  H   UNL     1       0.860   3.033 -26.038  0.00  0.00    +0.210 HD
ENDBRANCH  10  16
TORSDOF 1
ENDMDL
MODEL 6
REMARK VINA RESULT:    -8.738      1.302      3.316
REMARK INTER + INTRA:          -8.994
REMARK INTER:                  -8.994
REMARK INTRA:                   0.000
REMARK UNBOUND:                 0.000
REMARK  Name = ZINC000004104724
REMARK  4 active torsions:
REMARK  status: ('A' for Active; 'I' for Inactive)
REMARK    1  A    between atoms: C_1  and  C_2
REMARK    2  A    between atoms: C_2  and  C_3
REMARK    3  A    between atoms: C_12  and  C_13
REMARK    4  A    between atoms: C_12  and  O_14
REMARK                            x       y       z     vdW  Elec       q    Type
REMARK                         _______ _______ _______ _____ _____    ______ ____
ROOT
ATOM      1  C   UNL     1      -4.177   2.567 -20.921  0.00  0.00    +0.011 C 
ATOM      2  C   UNL     1      -4.327   3.028 -22.126  0.00  0.00    -0.028 C 
ATOM      3  C   UNL     1      -4.035   3.398 -23.338  0.00  0.00    -0.001 C 
ATOM      4  C   UNL     1      -3.932   3.813 -24.565  0.00  0.00    +0.012 C 
ATOM      5  C   UNL     1      -2.875   3.857 -25.320  0.00  0.00    +0.075 C 
ATOM      6  C   UNL     1      -1.659   3.495 -25.034  0.00  0.00    +0.137 C 
ATOM      7  C   UNL     1      -1.201   3.001 -23.922  0.00  0.00    +0.061 C 
ATOM      8  C   UNL     1       0.044   2.672 -23.744  0.00  0.00    +0.014 C 
ATOM      9  C   UNL     1       0.169   2.213 -22.534  0.00  0.00    +0.035 C 
ATOM     10  C   UNL     1      -0.999   2.259 -21.964  0.00  0.00    +0.067 C 
ATOM     11  C   UNL     1      -2.034   2.201 -21.180  0.00  0.00    +0.041 C 
ATOM     12  C   UNL     1      -1.845   2.746 -22.822  0.00  0.00    +0.034 C 
ATOM     13  O   UNL     1      -0.787   3.648 -25.986  0.00  0.00    -0.297 OA
ATOM     14  C   UNL     1      -5.599   3.294 -22.109  0.00  0.00    +0.011 C 
ATOM     15  C   UNL     1      -3.106   2.923 -22.561  0.00  0.00    +0.005 C 
ENDROOT
BRANCH  10  16
ATOM     16  O   UNL     1      -0.368   1.761 -20.942  0.00  0.00    -0.389 OA
ATOM     17  H   UNL     1       0.367   1.210 -21.253  0.00  0.00    +0.210 HD
ENDBRANCH  10  16
TORSDOF 1
ENDMDL
MODEL 7
REMARK VINA RESULT:    -8.645      0.805      3.218
REMARK INTER + INTRA:          -8.898
REMARK INTER:                  -8.898
REMARK INTRA:                   0.000
REMARK UNBOUND:                 0.000
REMARK  Name = ZINC000004104724
REMARK  4 active torsions:
REMARK  status: ('A' for Active; 'I' for Inactive)
REMARK    1  A    between atoms: C_1  and  C_2
REMARK    2  A    between atoms: C_2  and  C_3
REMARK    3  A    between atoms: C_12  and  C_13
REMARK    4  A    between atoms: C_12  and  O_14
REMARK                            x       y       z     vdW  Elec       q    Type
REMARK                         _______ _______ _______ _____ _____    ______ ____
ROOT
ATOM      1  C   UNL     1      -1.695   2.993 -20.875  0.00  0.00    +0.011 C 
ATOM      2  C   UNL     1      -2.941   3.195 -21.181  0.00  0.00    -0.028 C 
ATOM      3  C   UNL     1      -4.003   3.416 -21.897  0.00  0.00    -0.001 C 
ATOM      4  C   UNL     1      -5.162   3.632 -22.445  0.00  0.00    +0.012 C 
ATOM      5  C   UNL     1      -5.444   3.805 -23.702  0.00  0.00    +0.075 C 
ATOM      6  C   UNL     1      -4.638   3.805 -24.722  0.00  0.00    +0.137 C 
ATOM      7  C   UNL     1      -3.350   3.631 -24.736  0.00  0.00    +0.061 C 
ATOM      8  C   UNL     1      -2.637   3.650 -25.823  0.00  0.00    +0.014 C 
ATOM      9  C   UNL     1      -1.396   3.446 -25.493  0.00  0.00    +0.035 C 
ATOM     10  C   UNL     1      -1.342   3.301 -24.202  0.00  0.00    +0.067 C 
ATOM     11  C   UNL     1      -1.022   3.124 -22.955  0.00  0.00    +0.041 C 
ATOM     12  C   UNL     1      -2.549   3.415 -23.735  0.00  0.00    +0.034 C 
ATOM     13  O   UNL     1      -5.194   4.004 -25.880  0.00  0.00    -0.297 OA
ATOM     14  C   UNL     1      -3.475   3.141 -19.997  0.00  0.00    +0.011 C 
ATOM     15  C   UNL     1      -2.840   3.319 -22.471  0.00  0.00    +0.005 C 
ENDROOT
BRANCH  10  16
ATOM     16  O   UNL     1      -0.067   3.149 -24.409  0.00  0.00    -0.389 OA
ATOM     17  H   UNL     1       0.430   3.646 -23.739  0.00  0.00    +0.210 HD
ENDBRANCH  10  16
TORSDOF 1
ENDMDL
MODEL 8
REMARK VINA RESULT:    -8.460      2.113      3.632
REMARK INTER + INTRA:          -8.707
REMARK INTER:                  -8.707
REMARK INTRA:                   0.000
REMARK UNBOUND:                 0.000
REMARK  Name = ZINC000004104724
REMARK  4 active torsions:
REMARK  status: ('A' for Active; 'I' for Inactive)
REMARK    1  A    between atoms: C_1  and  C_2
REMARK    2  A    between atoms: C_2  and  C_3
REMARK    3  A    between atoms: C_12  and  C_13
REMARK    4  A    between atoms: C_12  and  O_14
REMARK                            x       y       z     vdW  Elec       q    Type
REMARK                         _______ _______ _______ _____ _____    ______ ____
ROOT
ATOM      1  C   UNL     1      -2.458   4.126 -24.289  0.00  0.00    +0.011 C 
ATOM      2  C   UNL     1      -2.238   3.442 -23.206  0.00  0.00    -0.028 C 
ATOM      3  C   UNL     1      -1.617   2.716 -22.325  0.00  0.00    -0.001 C 
ATOM      4  C   UNL     1      -1.161   1.997 -21.342  0.00  0.00    +0.012 C 
ATOM      5  C   UNL     1       0.018   1.467 -21.204  0.00  0.00    +0.075 C 
ATOM      6  C   UNL     1       1.033   1.525 -22.015  0.00  0.00    +0.137 C 
ATOM      7  C   UNL     1       1.119   2.127 -23.163  0.00  0.00    +0.061 C 
ATOM      8  C   UNL     1       2.192   2.120 -23.897  0.00  0.00    +0.014 C 
ATOM      9  C   UNL     1       1.948   2.809 -24.973  0.00  0.00    +0.035 C 
ATOM     10  C   UNL     1       0.724   3.242 -24.904  0.00  0.00    +0.067 C 
ATOM     11  C   UNL     1      -0.443   3.786 -25.076  0.00  0.00    +0.041 C 
ATOM     12  C   UNL     1       0.212   2.821 -23.786  0.00  0.00    +0.034 C 
ATOM     13  O   UNL     1       2.102   0.898 -21.625  0.00  0.00    -0.297 OA
ATOM     14  C   UNL     1      -3.394   3.564 -22.623  0.00  0.00    +0.011 C 
ATOM     15  C   UNL     1      -1.006   3.082 -23.413  0.00  0.00    +0.005 C 
ENDROOT
BRANCH  10  16
ATOM     16  O   UNL     1       0.992   3.777 -26.058  0.00  0.00    -0.389 OA
ATOM     17  H   UNL     1       1.790   3.366 -26.427  0.00  0.00    +0.210 HD
ENDBRANCH  10  16
TORSDOF 1
ENDMDL
MODEL 9
REMARK VINA RESULT:    -8.457      1.905      3.887
REMARK INTER + INTRA:          -8.704
REMARK INTER:                  -8.704
REMARK INTRA:                   0.000
REMARK UNBOUND:                 0.000
REMARK  Name = ZINC000004104724
REMARK  4 active torsions:
REMARK  status: ('A' for Active; 'I' for Inactive)
REMARK    1  A    between atoms: C_1  and  C_2
REMARK    2  A    between atoms: C_2  and  C_3
REMARK    3  A    between atoms: C_12  and  C_13
REMARK    4  A    between atoms: C_12  and  O_14
REMARK                            x       y       z     vdW  Elec       q    Type
REMARK                         _______ _______ _______ _____ _____    ______ ____
ROOT
ATOM      1  C   UNL     1      -3.223   2.482 -21.373  0.00  0.00    +0.011 C 
ATOM      2  C   UNL     1      -3.081   2.983 -22.563  0.00  0.00    -0.028 C 
ATOM      3  C   UNL     1      -2.515   3.351 -23.674  0.00  0.00    -0.001 C 
ATOM      4  C   UNL     1      -2.125   3.783 -24.837  0.00  0.00    +0.012 C 
ATOM      5  C   UNL     1      -0.936   3.742 -25.359  0.00  0.00    +0.075 C 
ATOM      6  C   UNL     1       0.159   3.260 -24.849  0.00  0.00    +0.137 C 
ATOM      7  C   UNL     1       0.333   2.700 -23.689  0.00  0.00    +0.061 C 
ATOM      8  C   UNL     1       1.480   2.249 -23.276  0.00  0.00    +0.014 C 
ATOM      9  C   UNL     1       1.313   1.753 -22.085  0.00  0.00    +0.035 C 
ATOM     10  C   UNL     1       0.062   1.898 -21.762  0.00  0.00    +0.067 C 
ATOM     11  C   UNL     1      -1.113   1.920 -21.208  0.00  0.00    +0.041 C 
ATOM     12  C   UNL     1      -0.544   2.482 -22.753  0.00  0.00    +0.034 C 
ATOM     13  O   UNL     1       1.218   3.351 -25.596  0.00  0.00    -0.297 OA
ATOM     14  C   UNL     1      -4.301   3.369 -22.794  0.00  0.00    +0.011 C 
ATOM     15  C   UNL     1      -1.811   2.772 -22.746  0.00  0.00    +0.005 C 
ENDROOT
BRANCH  10  16
ATOM     16  O   UNL     1       0.422   1.318 -20.656  0.00  0.00    -0.389 OA
ATOM     17  H   UNL     1      -0.350   1.222 -20.075  0.00  0.00    +0.210 HD
ENDBRANCH  10  16
TORSDOF 1
ENDMDL
