MODEL 1
REMARK VINA RESULT:    -9.343      0.000      0.000
REMARK INTER + INTRA:          -9.616
REMARK INTER:                  -9.616
REMARK INTRA:                   0.000
REMARK UNBOUND:                 0.000
REMARK  Name = ZINC000004104726
REMARK  4 active torsions:
REMARK  status: ('A' for Active; 'I' for Inactive)
REMARK    1  A    between atoms: C_1  and  C_2
REMARK    2  A    between atoms: C_2  and  C_3
REMARK    3  A    between atoms: C_9  and  C_10
REMARK    4  A    between atoms: C_9  and  O_11
REMARK                            x       y       z     vdW  Elec       q    Type
REMARK                         _______ _______ _______ _____ _____    ______ ____
ROOT
ATOM      1  C   UNL     1      -5.506   3.379 -22.136  0.00  0.00    +0.011 C 
ATOM      2  C   UNL     1      -4.339   2.958 -21.746  0.00  0.00    -0.028 C 
ATOM      3  C   UNL     1      -3.672   3.085 -22.854  0.00  0.00    +0.005 C 
ATOM      4  C   UNL     1      -3.171   3.277 -24.038  0.00  0.00    +0.034 C 
ATOM      5  C   UNL     1      -1.955   3.064 -24.449  0.00  0.00    +0.061 C 
ATOM      6  C   UNL     1      -0.941   2.607 -23.777  0.00  0.00    +0.137 C 
ATOM      7  C   UNL     1      -0.892   2.249 -22.527  0.00  0.00    +0.075 C 
ATOM      8  C   UNL     1      -1.845   2.260 -21.643  0.00  0.00    +0.012 C 
ATOM      9  O   UNL     1       0.170   2.492 -24.440  0.00  0.00    -0.297 OA
ATOM     10  C   UNL     1      -1.892   3.394 -25.705  0.00  0.00    +0.014 C 
ATOM     11  C   UNL     1      -3.068   3.811 -26.070  0.00  0.00    +0.035 C 
ATOM     12  C   UNL     1      -3.858   3.739 -25.041  0.00  0.00    +0.067 C 
ATOM     13  C   UNL     1      -4.834   3.764 -24.183  0.00  0.00    +0.041 C 
ATOM     14  C   UNL     1      -4.602   2.686 -20.502  0.00  0.00    +0.011 C 
ATOM     15  C   UNL     1      -3.081   2.632 -21.788  0.00  0.00    -0.001 C 
ENDROOT
BRANCH  12  16
ATOM     16  O   UNL     1      -4.750   4.205 -25.864  0.00  0.00    -0.389 OA
ATOM     17  H   UNL     1      -5.263   4.900 -25.422  0.00  0.00    +0.210 HD
ENDBRANCH  12  16
TORSDOF 1
ENDMDL
MODEL 2
REMARK VINA RESULT:    -9.206      1.484      3.489
REMARK INTER + INTRA:          -9.475
REMARK INTER:                  -9.475
REMARK INTRA:                   0.000
REMARK UNBOUND:                 0.000
REMARK  Name = ZINC000004104726
REMARK  4 active torsions:
REMARK  status: ('A' for Active; 'I' for Inactive)
REMARK    1  A    between atoms: C_1  and  C_2
REMARK    2  A    between atoms: C_2  and  C_3
REMARK    3  A    between atoms: C_9  and  C_10
REMARK    4  A    between atoms: C_9  and  O_11
REMARK                            x       y       z     vdW  Elec       q    Type
REMARK                         _______ _______ _______ _____ _____    ______ ____
ROOT
ATOM      1  C   UNL     1      -4.622   3.865 -25.714  0.00  0.00    +0.011 C 
ATOM      2  C   UNL     1      -3.382   3.523 -25.520  0.00  0.00    -0.028 C 
ATOM      3  C   UNL     1      -3.402   3.321 -24.237  0.00  0.00    +0.005 C 
ATOM      4  C   UNL     1      -3.609   3.168 -22.962  0.00  0.00    +0.034 C 
ATOM      5  C   UNL     1      -2.764   2.807 -22.041  0.00  0.00    +0.061 C 
ATOM      6  C   UNL     1      -1.505   2.511 -22.167  0.00  0.00    +0.137 C 
ATOM      7  C   UNL     1      -0.778   2.503 -23.246  0.00  0.00    +0.075 C 
ATOM      8  C   UNL     1      -1.132   2.788 -24.464  0.00  0.00    +0.012 C 
ATOM      9  O   UNL     1      -0.890   2.180 -21.071  0.00  0.00    -0.297 OA
ATOM     10  C   UNL     1      -3.395   2.782 -20.905  0.00  0.00    +0.014 C 
ATOM     11  C   UNL     1      -4.630   3.128 -21.124  0.00  0.00    +0.035 C 
ATOM     12  C   UNL     1      -4.762   3.365 -22.394  0.00  0.00    +0.067 C 
ATOM     13  C   UNL     1      -5.151   3.657 -23.600  0.00  0.00    +0.041 C 
ATOM     14  C   UNL     1      -2.933   3.606 -26.738  0.00  0.00    +0.011 C 
ATOM     15  C   UNL     1      -2.299   3.152 -24.904  0.00  0.00    -0.001 C 
ENDROOT
BRANCH  12  16
ATOM     16  O   UNL     1      -5.996   3.625 -22.080  0.00  0.00    -0.389 OA
ATOM     17  H   UNL     1      -6.015   4.200 -21.298  0.00  0.00    +0.210 HD
ENDBRANCH  12  16
TORSDOF 1
ENDMDL
MODEL 3
REMARK VINA RESULT:    -9.149      1.321      3.371
REMARK INTER + INTRA:          -9.417
REMARK INTER:                  -9.417
REMARK INTRA:                   0.000
REMARK UNBOUND:                 0.000
REMARK  Name = ZINC000004104726
REMARK  4 active torsions:
REMARK  status: ('A' for Active; 'I' for Inactive)
REMARK    1  A    between atoms: C_1  and  C_2
REMARK    2  A    between atoms: C_2  and  C_3
REMARK    3  A    between atoms: C_9  and  C_10
REMARK    4  A    between atoms: C_9  and  O_11
REMARK                            x       y       z     vdW  Elec       q    Type
REMARK                         _______ _______ _______ _____ _____    ______ ____
ROOT
ATOM      1  C   UNL     1       0.090   2.184 -23.044  0.00  0.00    +0.011 C 
ATOM      2  C   UNL     1      -0.892   2.220 -22.193  0.00  0.00    -0.028 C 
ATOM      3  C   UNL     1      -1.842   2.658 -22.964  0.00  0.00    +0.005 C 
ATOM      4  C   UNL     1      -2.659   3.097 -23.875  0.00  0.00    +0.034 C 
ATOM      5  C   UNL     1      -3.921   3.390 -23.759  0.00  0.00    +0.061 C 
ATOM      6  C   UNL     1      -4.677   3.317 -22.705  0.00  0.00    +0.137 C 
ATOM      7  C   UNL     1      -4.358   2.932 -21.504  0.00  0.00    +0.075 C 
ATOM      8  C   UNL     1      -3.205   2.525 -21.063  0.00  0.00    +0.012 C 
ATOM      9  O   UNL     1      -5.915   3.676 -22.871  0.00  0.00    -0.297 OA
ATOM     10  C   UNL     1      -4.347   3.793 -24.919  0.00  0.00    +0.014 C 
ATOM     11  C   UNL     1      -3.349   3.748 -25.752  0.00  0.00    +0.035 C 
ATOM     12  C   UNL     1      -2.306   3.319 -25.107  0.00  0.00    +0.067 C 
ATOM     13  C   UNL     1      -1.139   2.917 -24.700  0.00  0.00    +0.041 C 
ATOM     14  C   UNL     1      -0.281   1.794 -21.127  0.00  0.00    +0.011 C 
ATOM     15  C   UNL     1      -2.086   2.403 -21.712  0.00  0.00    -0.001 C 
ENDROOT
BRANCH  12  16
ATOM     16  O   UNL     1      -1.709   3.456 -26.253  0.00  0.00    -0.389 OA
ATOM     17  H   UNL     1      -2.345   3.297 -26.969  0.00  0.00    +0.210 HD
ENDBRANCH  12  16
TORSDOF 1
ENDMDL
MODEL 4
REMARK VINA RESULT:    -9.068      1.595      4.021
REMARK INTER + INTRA:          -9.333
REMARK INTER:                  -9.333
REMARK INTRA:                   0.000
REMARK UNBOUND:                 0.000
REMARK  Name = ZINC000004104726
REMARK  4 active torsions:
REMARK  status: ('A' for Active; 'I' for Inactive)
REMARK    1  A    between atoms: C_1  and  C_2
REMARK    2  A    between atoms: C_2  and  C_3
REMARK    3  A    between atoms: C_9  and  C_10
REMARK    4  A    between atoms: C_9  and  O_11
REMARK                            x       y       z     vdW  Elec       q    Type
REMARK                         _______ _______ _______ _____ _____    ______ ____
ROOT
ATOM      1  C   UNL     1      -0.741   1.926 -21.690  0.00  0.00    +0.011 C 
ATOM      2  C   UNL     1      -0.784   2.427 -22.889  0.00  0.00    -0.028 C 
ATOM      3  C   UNL     1      -2.034   2.776 -22.943  0.00  0.00    +0.005 C 
ATOM      4  C   UNL     1      -3.298   3.055 -22.817  0.00  0.00    +0.034 C 
ATOM      5  C   UNL     1      -4.094   3.615 -23.679  0.00  0.00    +0.061 C 
ATOM      6  C   UNL     1      -3.824   4.035 -24.879  0.00  0.00    +0.137 C 
ATOM      7  C   UNL     1      -2.689   3.998 -25.514  0.00  0.00    +0.075 C 
ATOM      8  C   UNL     1      -1.547   3.533 -25.106  0.00  0.00    +0.012 C 
ATOM      9  O   UNL     1      -4.818   4.561 -25.530  0.00  0.00    -0.297 OA
ATOM     10  C   UNL     1      -5.273   3.703 -23.138  0.00  0.00    +0.014 C 
ATOM     11  C   UNL     1      -5.205   3.196 -21.943  0.00  0.00    +0.035 C 
ATOM     12  C   UNL     1      -3.985   2.796 -21.744  0.00  0.00    +0.067 C 
ATOM     13  C   UNL     1      -2.859   2.321 -21.303  0.00  0.00    +0.041 C 
ATOM     14  C   UNL     1       0.454   2.251 -23.250  0.00  0.00    +0.011 C 
ATOM     15  C   UNL     1      -1.255   2.989 -23.962  0.00  0.00    -0.001 C 
ENDROOT
BRANCH  12  16
ATOM     16  O   UNL     1      -4.436   2.437 -20.579  0.00  0.00    -0.389 OA
ATOM     17  H   UNL     1      -5.396   2.577 -20.548  0.00  0.00    +0.210 HD
ENDBRANCH  12  16
TORSDOF 1
ENDMDL
MODEL 5
REMARK VINA RESULT:    -8.851      1.414      2.751
REMARK INTER + INTRA:          -9.110
REMARK INTER:                  -9.110
REMARK INTRA:                   0.000
REMARK UNBOUND:                 0.000
REMARK  Name = ZINC000004104726
REMARK  4 active torsions:
REMARK  status: ('A' for Active; 'I' for Inactive)
REMARK    1  A    between atoms: C_1  and  C_2
REMARK    2  A    between atoms: C_2  and  C_3
REMARK    3  A    between atoms: C_9  and  C_10
REMARK    4  A    between atoms: C_9  and  O_11
REMARK                            x       y       z     vdW  Elec       q    Type
REMARK                         _______ _______ _______ _____ _____    ______ ____
ROOT
ATOM      1  C   UNL     1      -4.309   4.052 -25.136  0.00  0.00    +0.011 C 
ATOM      2  C   UNL     1      -4.301   3.663 -23.895  0.00  0.00    -0.028 C 
ATOM      3  C   UNL     1      -3.044   3.362 -23.762  0.00  0.00    +0.005 C 
ATOM      4  C   UNL     1      -1.769   3.115 -23.813  0.00  0.00    +0.034 C 
ATOM      5  C   UNL     1      -0.992   2.661 -22.874  0.00  0.00    +0.061 C 
ATOM      6  C   UNL     1      -1.299   2.342 -21.652  0.00  0.00    +0.137 C 
ATOM      7  C   UNL     1      -2.459   2.398 -21.067  0.00  0.00    +0.075 C 
ATOM      8  C   UNL     1      -3.597   2.787 -21.559  0.00  0.00    +0.012 C 
ATOM      9  O   UNL     1      -0.317   1.910 -20.917  0.00  0.00    -0.297 OA
ATOM     10  C   UNL     1       0.211   2.565 -23.358  0.00  0.00    +0.014 C 
ATOM     11  C   UNL     1       0.177   2.959 -24.597  0.00  0.00    +0.035 C 
ATOM     12  C   UNL     1      -1.045   3.299 -24.878  0.00  0.00    +0.067 C 
ATOM     13  C   UNL     1      -2.166   3.694 -25.404  0.00  0.00    +0.041 C 
ATOM     14  C   UNL     1      -5.557   3.829 -23.599  0.00  0.00    +0.011 C 
ATOM     15  C   UNL     1      -3.857   3.216 -22.758  0.00  0.00    -0.001 C 
ENDROOT
BRANCH  12  16
ATOM     16  O   UNL     1      -0.558   3.566 -26.053  0.00  0.00    -0.389 OA
ATOM     17  H   UNL     1      -1.209   4.071 -26.565  0.00  0.00    +0.210 HD
ENDBRANCH  12  16
TORSDOF 1
ENDMDL
MODEL 6
REMARK VINA RESULT:    -8.768      1.611      4.047
REMARK INTER + INTRA:          -9.024
REMARK INTER:                  -9.024
REMARK INTRA:                   0.000
REMARK UNBOUND:                 0.000
REMARK  Name = ZINC000004104726
REMARK  4 active torsions:
REMARK  status: ('A' for Active; 'I' for Inactive)
REMARK    1  A    between atoms: C_1  and  C_2
REMARK    2  A    between atoms: C_2  and  C_3
REMARK    3  A    between atoms: C_9  and  C_10
REMARK    4  A    between atoms: C_9  and  O_11
REMARK                            x       y       z     vdW  Elec       q    Type
REMARK                         _______ _______ _______ _____ _____    ______ ____
ROOT
ATOM      1  C   UNL     1      -2.941   3.334 -26.128  0.00  0.00    +0.011 C 
ATOM      2  C   UNL     1      -3.846   3.508 -25.210  0.00  0.00    -0.028 C 
ATOM      3  C   UNL     1      -3.164   3.177 -24.155  0.00  0.00    +0.005 C 
ATOM      4  C   UNL     1      -2.334   2.815 -23.222  0.00  0.00    +0.034 C 
ATOM      5  C   UNL     1      -2.542   2.732 -21.940  0.00  0.00    +0.061 C 
ATOM      6  C   UNL     1      -3.629   2.991 -21.277  0.00  0.00    +0.137 C 
ATOM      7  C   UNL     1      -4.778   3.396 -21.730  0.00  0.00    +0.075 C 
ATOM      8  C   UNL     1      -5.123   3.643 -22.959  0.00  0.00    +0.012 C 
ATOM      9  O   UNL     1      -3.558   2.822 -19.989  0.00  0.00    -0.297 OA
ATOM     10  C   UNL     1      -1.440   2.329 -21.380  0.00  0.00    +0.014 C 
ATOM     11  C   UNL     1      -0.552   2.163 -22.316  0.00  0.00    +0.035 C 
ATOM     12  C   UNL     1      -1.104   2.463 -23.453  0.00  0.00    +0.067 C 
ATOM     13  C   UNL     1      -1.414   2.700 -24.692  0.00  0.00    +0.041 C 
ATOM     14  C   UNL     1      -4.842   3.899 -25.949  0.00  0.00    +0.011 C 
ATOM     15  C   UNL     1      -4.405   3.545 -24.037  0.00  0.00    -0.001 C 
ENDROOT
BRANCH  12  16
ATOM     16  O   UNL     1       0.061   2.161 -23.944  0.00  0.00    -0.389 OA
ATOM     17  H   UNL     1       0.499   2.970 -24.255  0.00  0.00    +0.210 HD
ENDBRANCH  12  16
TORSDOF 1
ENDMDL
MODEL 7
REMARK VINA RESULT:    -8.645      0.777      3.216
REMARK INTER + INTRA:          -8.897
REMARK INTER:                  -8.897
REMARK INTRA:                   0.000
REMARK UNBOUND:                 0.000
REMARK  Name = ZINC000004104726
REMARK  4 active torsions:
REMARK  status: ('A' for Active; 'I' for Inactive)
REMARK    1  A    between atoms: C_1  and  C_2
REMARK    2  A    between atoms: C_2  and  C_3
REMARK    3  A    between atoms: C_9  and  C_10
REMARK    4  A    between atoms: C_9  and  O_11
REMARK                            x       y       z     vdW  Elec       q    Type
REMARK                         _______ _______ _______ _____ _____    ______ ____
ROOT
ATOM      1  C   UNL     1      -1.629   2.959 -20.947  0.00  0.00    +0.011 C 
ATOM      2  C   UNL     1      -2.881   3.171 -21.227  0.00  0.00    -0.028 C 
ATOM      3  C   UNL     1      -2.805   3.296 -22.518  0.00  0.00    +0.005 C 
ATOM      4  C   UNL     1      -2.540   3.391 -23.787  0.00  0.00    +0.034 C 
ATOM      5  C   UNL     1      -3.359   3.615 -24.772  0.00  0.00    +0.061 C 
ATOM      6  C   UNL     1      -4.645   3.798 -24.732  0.00  0.00    +0.137 C 
ATOM      7  C   UNL     1      -5.430   3.803 -23.695  0.00  0.00    +0.075 C 
ATOM      8  C   UNL     1      -5.123   3.626 -22.445  0.00  0.00    +0.012 C 
ATOM      9  O   UNL     1      -5.222   4.003 -25.878  0.00  0.00    -0.297 OA
ATOM     10  C   UNL     1      -2.668   3.630 -25.873  0.00  0.00    +0.014 C 
ATOM     11  C   UNL     1      -1.422   3.417 -25.568  0.00  0.00    +0.035 C 
ATOM     12  C   UNL     1      -1.343   3.269 -24.280  0.00  0.00    +0.067 C 
ATOM     13  C   UNL     1      -0.999   3.088 -23.040  0.00  0.00    +0.041 C 
ATOM     14  C   UNL     1      -3.390   3.119 -20.031  0.00  0.00    +0.011 C 
ATOM     15  C   UNL     1      -3.956   3.401 -21.921  0.00  0.00    -0.001 C 
ENDROOT
BRANCH  12  16
ATOM     16  O   UNL     1      -0.074   3.109 -24.512  0.00  0.00    -0.389 OA
ATOM     17  H   UNL     1       0.156   2.171 -24.409  0.00  0.00    +0.210 HD
ENDBRANCH  12  16
TORSDOF 1
ENDMDL
MODEL 8
REMARK VINA RESULT:    -8.537      2.081      3.648
REMARK INTER + INTRA:          -8.786
REMARK INTER:                  -8.786
REMARK INTRA:                   0.000
REMARK UNBOUND:                 0.000
REMARK  Name = ZINC000004104726
REMARK  4 active torsions:
REMARK  status: ('A' for Active; 'I' for Inactive)
REMARK    1  A    between atoms: C_1  and  C_2
REMARK    2  A    between atoms: C_2  and  C_3
REMARK    3  A    between atoms: C_9  and  C_10
REMARK    4  A    between atoms: C_9  and  O_11
REMARK                            x       y       z     vdW  Elec       q    Type
REMARK                         _______ _______ _______ _____ _____    ______ ____
ROOT
ATOM      1  C   UNL     1      -2.511   3.956 -24.533  0.00  0.00    +0.011 C 
ATOM      2  C   UNL     1      -2.341   3.309 -23.418  0.00  0.00    -0.028 C 
ATOM      3  C   UNL     1      -1.086   2.990 -23.532  0.00  0.00    +0.005 C 
ATOM      4  C   UNL     1       0.162   2.763 -23.815  0.00  0.00    +0.034 C 
ATOM      5  C   UNL     1       1.049   2.120 -23.114  0.00  0.00    +0.061 C 
ATOM      6  C   UNL     1       0.907   1.546 -21.957  0.00  0.00    +0.137 C 
ATOM      7  C   UNL     1      -0.159   1.472 -21.214  0.00  0.00    +0.075 C 
ATOM      8  C   UNL     1      -1.343   1.955 -21.446  0.00  0.00    +0.012 C 
ATOM      9  O   UNL     1       1.969   0.969 -21.479  0.00  0.00    -0.297 OA
ATOM     10  C   UNL     1       2.169   2.133 -23.774  0.00  0.00    +0.014 C 
ATOM     11  C   UNL     1       1.974   2.784 -24.883  0.00  0.00    +0.035 C 
ATOM     12  C   UNL     1       0.734   3.173 -24.909  0.00  0.00    +0.067 C 
ATOM     13  C   UNL     1      -0.437   3.669 -25.173  0.00  0.00    +0.041 C 
ATOM     14  C   UNL     1      -3.538   3.405 -22.918  0.00  0.00    +0.011 C 
ATOM     15  C   UNL     1      -1.756   2.630 -22.477  0.00  0.00    -0.001 C 
ENDROOT
BRANCH  12  16
ATOM     16  O   UNL     1       1.061   3.687 -26.057  0.00  0.00    -0.389 OA
ATOM     17  H   UNL     1       1.161   4.647 -25.963  0.00  0.00    +0.210 HD
ENDBRANCH  12  16
TORSDOF 1
ENDMDL
MODEL 9
REMARK VINA RESULT:    -8.233      2.409      4.793
REMARK INTER + INTRA:          -8.474
REMARK INTER:                  -8.474
REMARK INTRA:                   0.000
REMARK UNBOUND:                 0.000
REMARK  Name = ZINC000004104726
REMARK  4 active torsions:
REMARK  status: ('A' for Active; 'I' for Inactive)
REMARK    1  A    between atoms: C_1  and  C_2
REMARK    2  A    between atoms: C_2  and  C_3
REMARK    3  A    between atoms: C_9  and  C_10
REMARK    4  A    between atoms: C_9  and  O_11
REMARK                            x       y       z     vdW  Elec       q    Type
REMARK                         _______ _______ _______ _____ _____    ______ ____
ROOT
ATOM      1  C   UNL     1       3.191   2.110 -23.144  0.00  0.00    +0.011 C 
ATOM      2  C   UNL     1       2.227   1.817 -22.322  0.00  0.00    -0.028 C 
ATOM      3  C   UNL     1       1.212   2.269 -22.996  0.00  0.00    +0.005 C 
ATOM      4  C   UNL     1       0.326   2.772 -23.804  0.00  0.00    +0.034 C 
ATOM      5  C   UNL     1      -0.963   2.847 -23.649  0.00  0.00    +0.061 C 
ATOM      6  C   UNL     1      -1.684   2.438 -22.649  0.00  0.00    +0.137 C 
ATOM      7  C   UNL     1      -1.295   1.851 -21.555  0.00  0.00    +0.075 C 
ATOM      8  C   UNL     1      -0.089   1.530 -21.193  0.00  0.00    +0.012 C 
ATOM      9  O   UNL     1      -2.964   2.641 -22.755  0.00  0.00    -0.297 OA
ATOM     10  C   UNL     1      -1.461   3.426 -24.701  0.00  0.00    +0.014 C 
ATOM     11  C   UNL     1      -0.479   3.708 -25.506  0.00  0.00    +0.035 C 
ATOM     12  C   UNL     1       0.624   3.305 -24.952  0.00  0.00    +0.067 C 
ATOM     13  C   UNL     1       1.844   2.999 -24.622  0.00  0.00    +0.041 C 
ATOM     14  C   UNL     1       2.909   1.263 -21.363  0.00  0.00    +0.011 C 
ATOM     15  C   UNL     1       1.026   1.716 -21.834  0.00  0.00    -0.001 C 
ENDROOT
BRANCH  12  16
ATOM     16  O   UNL     1       1.179   3.773 -26.031  0.00  0.00    -0.389 OA
ATOM     17  H   UNL     1       0.606   4.454 -26.418  0.00  0.00    +0.210 HD
ENDBRANCH  12  16
TORSDOF 1
ENDMDL
