MODEL 1
REMARK VINA RESULT:    -8.044      0.000      0.000
REMARK INTER + INTRA:          -8.279
REMARK INTER:                  -8.279
REMARK INTRA:                   0.000
REMARK UNBOUND:                 0.000
REMARK  Name = O[C@H]1CCN2Cc3ccccc3N=C12                                            ZINC000100051847
REMARK  1 active torsions:
REMARK  status: ('A' for Active; 'I' for Inactive)
REMARK    1  A    between atoms: O_1  and  C_2
REMARK                            x       y       z     vdW  Elec       q    Type
REMARK                         _______ _______ _______ _____ _____    ______ ____
ROOT
ATOM      1  C   UNL     1       0.187   2.074 -23.264  0.00  0.00    +0.233 C 
ATOM      2  C   UNL     1       0.673   1.608 -22.152  0.00  0.00    +0.087 C 
ATOM      3  C   UNL     1      -0.274   1.623 -21.262  0.00  0.00    +0.229 C 
ATOM      4  N   UNL     1      -1.346   2.099 -21.823  0.00  0.00    -0.218 N 
ATOM      5  C   UNL     1      -2.544   2.314 -21.368  0.00  0.00    +0.266 C 
ATOM      6  C   UNL     1      -3.457   2.808 -22.150  0.00  0.00    +0.042 A 
ATOM      7  C   UNL     1      -4.656   3.024 -21.694  0.00  0.00    +0.011 A 
ATOM      8  C   UNL     1      -5.569   3.518 -22.477  0.00  0.00    +0.001 A 
ATOM      9  C   UNL     1      -5.284   3.796 -23.714  0.00  0.00    +0.004 A 
ATOM     10  C   UNL     1      -4.086   3.581 -24.169  0.00  0.00    +0.056 A 
ATOM     11  C   UNL     1      -3.173   3.087 -23.387  0.00  0.00    +0.183 A 
ATOM     12  N   UNL     1      -1.974   2.871 -23.843  0.00  0.00    -0.043 NA
ATOM     13  C   UNL     1      -1.061   2.377 -23.061  0.00  0.00    +0.318 C 
ENDROOT
BRANCH   1  14
ATOM     14  O   UNL     1       0.835   2.212 -24.382  0.00  0.00    -0.380 OA
ATOM     15  H   UNL     1       0.203   2.301 -25.113  0.00  0.00    +0.211 HD
ENDBRANCH   1  14
TORSDOF 1
ENDMDL
MODEL 2
REMARK VINA RESULT:    -7.992      1.262      2.127
REMARK INTER + INTRA:          -8.225
REMARK INTER:                  -8.225
REMARK INTRA:                   0.000
REMARK UNBOUND:                 0.000
REMARK  Name = O[C@H]1CCN2Cc3ccccc3N=C12                                            ZINC000100051847
REMARK  1 active torsions:
REMARK  status: ('A' for Active; 'I' for Inactive)
REMARK    1  A    between atoms: O_1  and  C_2
REMARK                            x       y       z     vdW  Elec       q    Type
REMARK                         _______ _______ _______ _____ _____    ______ ____
ROOT
ATOM      1  C   UNL     1       0.151   1.865 -21.760  0.00  0.00    +0.233 C 
ATOM      2  C   UNL     1       0.976   2.062 -22.745  0.00  0.00    +0.087 C 
ATOM      3  C   UNL     1       0.310   2.594 -23.726  0.00  0.00    +0.229 C 
ATOM      4  N   UNL     1      -0.927   2.726 -23.348  0.00  0.00    -0.218 N 
ATOM      5  C   UNL     1      -1.976   3.199 -23.953  0.00  0.00    +0.266 C 
ATOM      6  C   UNL     1      -3.123   3.220 -23.342  0.00  0.00    +0.042 A 
ATOM      7  C   UNL     1      -4.173   3.693 -23.947  0.00  0.00    +0.011 A 
ATOM      8  C   UNL     1      -5.320   3.714 -23.337  0.00  0.00    +0.001 A 
ATOM      9  C   UNL     1      -5.418   3.264 -22.121  0.00  0.00    +0.004 A 
ATOM     10  C   UNL     1      -4.369   2.791 -21.516  0.00  0.00    +0.056 A 
ATOM     11  C   UNL     1      -3.222   2.770 -22.127  0.00  0.00    +0.183 A 
ATOM     12  N   UNL     1      -2.172   2.297 -21.522  0.00  0.00    -0.043 NA
ATOM     13  C   UNL     1      -1.025   2.276 -22.133  0.00  0.00    +0.318 C 
ENDROOT
BRANCH   1  14
ATOM     14  O   UNL     1       0.450   1.348 -20.605  0.00  0.00    -0.380 OA
ATOM     15  H   UNL     1       0.841   2.031 -20.037  0.00  0.00    +0.211 HD
ENDBRANCH   1  14
TORSDOF 1
ENDMDL
MODEL 3
REMARK VINA RESULT:    -7.718      1.875      4.395
REMARK INTER + INTRA:          -7.944
REMARK INTER:                  -7.944
REMARK INTRA:                   0.000
REMARK UNBOUND:                 0.000
REMARK  Name = O[C@H]1CCN2Cc3ccccc3N=C12                                            ZINC000100051847
REMARK  1 active torsions:
REMARK  status: ('A' for Active; 'I' for Inactive)
REMARK    1  A    between atoms: O_1  and  C_2
REMARK                            x       y       z     vdW  Elec       q    Type
REMARK                         _______ _______ _______ _____ _____    ______ ____
ROOT
ATOM      1  C   UNL     1      -4.545   4.002 -24.432  0.00  0.00    +0.233 C 
ATOM      2  C   UNL     1      -5.558   3.915 -23.622  0.00  0.00    +0.087 C 
ATOM      3  C   UNL     1      -5.144   3.364 -22.520  0.00  0.00    +0.229 C 
ATOM      4  N   UNL     1      -3.875   3.111 -22.648  0.00  0.00    -0.218 N 
ATOM      5  C   UNL     1      -3.010   2.572 -21.842  0.00  0.00    +0.266 C 
ATOM      6  C   UNL     1      -1.774   2.429 -22.217  0.00  0.00    +0.042 A 
ATOM      7  C   UNL     1      -0.907   1.890 -21.411  0.00  0.00    +0.011 A 
ATOM      8  C   UNL     1       0.329   1.746 -21.787  0.00  0.00    +0.001 A 
ATOM      9  C   UNL     1       0.699   2.141 -22.969  0.00  0.00    +0.004 A 
ATOM     10  C   UNL     1      -0.167   2.679 -23.775  0.00  0.00    +0.056 A 
ATOM     11  C   UNL     1      -1.402   2.823 -23.399  0.00  0.00    +0.183 A 
ATOM     12  N   UNL     1      -2.269   3.362 -24.206  0.00  0.00    -0.043 NA
ATOM     13  C   UNL     1      -3.505   3.505 -23.830  0.00  0.00    +0.318 C 
ENDROOT
BRANCH   1  14
ATOM     14  O   UNL     1      -4.568   4.499 -25.633  0.00  0.00    -0.380 OA
ATOM     15  H   UNL     1      -4.403   3.793 -26.278  0.00  0.00    +0.211 HD
ENDBRANCH   1  14
TORSDOF 1
ENDMDL
MODEL 4
REMARK VINA RESULT:    -7.547      2.208      4.869
REMARK INTER + INTRA:          -7.767
REMARK INTER:                  -7.767
REMARK INTRA:                   0.000
REMARK UNBOUND:                 0.000
REMARK  Name = O[C@H]1CCN2Cc3ccccc3N=C12                                            ZINC000100051847
REMARK  1 active torsions:
REMARK  status: ('A' for Active; 'I' for Inactive)
REMARK    1  A    between atoms: O_1  and  C_2
REMARK                            x       y       z     vdW  Elec       q    Type
REMARK                         _______ _______ _______ _____ _____    ______ ____
ROOT
ATOM      1  C   UNL     1      -4.979   3.748 -23.424  0.00  0.00    +0.233 C 
ATOM      2  C   UNL     1      -5.091   4.364 -24.563  0.00  0.00    +0.087 C 
ATOM      3  C   UNL     1      -3.920   4.382 -25.126  0.00  0.00    +0.229 C 
ATOM      4  N   UNL     1      -3.084   3.778 -24.336  0.00  0.00    -0.218 N 
ATOM      5  C   UNL     1      -1.811   3.534 -24.438  0.00  0.00    +0.266 C 
ATOM      6  C   UNL     1      -1.194   2.898 -23.488  0.00  0.00    +0.042 A 
ATOM      7  C   UNL     1       0.080   2.653 -23.590  0.00  0.00    +0.011 A 
ATOM      8  C   UNL     1       0.698   2.017 -22.639  0.00  0.00    +0.001 A 
ATOM      9  C   UNL     1       0.043   1.625 -21.587  0.00  0.00    +0.004 A 
ATOM     10  C   UNL     1      -1.229   1.869 -21.485  0.00  0.00    +0.056 A 
ATOM     11  C   UNL     1      -1.847   2.505 -22.435  0.00  0.00    +0.183 A 
ATOM     12  N   UNL     1      -3.121   2.750 -22.333  0.00  0.00    -0.043 NA
ATOM     13  C   UNL     1      -3.738   3.386 -23.283  0.00  0.00    +0.318 C 
ENDROOT
BRANCH   1  14
ATOM     14  O   UNL     1      -5.940   3.532 -22.574  0.00  0.00    -0.380 OA
ATOM     15  H   UNL     1      -6.135   2.582 -22.542  0.00  0.00    +0.211 HD
ENDBRANCH   1  14
TORSDOF 1
ENDMDL
MODEL 5
REMARK VINA RESULT:    -7.302      2.201      4.695
REMARK INTER + INTRA:          -7.515
REMARK INTER:                  -7.515
REMARK INTRA:                   0.000
REMARK UNBOUND:                 0.000
REMARK  Name = O[C@H]1CCN2Cc3ccccc3N=C12                                            ZINC000100051847
REMARK  1 active torsions:
REMARK  status: ('A' for Active; 'I' for Inactive)
REMARK    1  A    between atoms: O_1  and  C_2
REMARK                            x       y       z     vdW  Elec       q    Type
REMARK                         _______ _______ _______ _____ _____    ______ ____
ROOT
ATOM      1  C   UNL     1      -4.488   2.774 -21.561  0.00  0.00    +0.233 C 
ATOM      2  C   UNL     1      -5.538   3.270 -22.145  0.00  0.00    +0.087 C 
ATOM      3  C   UNL     1      -5.177   3.715 -23.311  0.00  0.00    +0.229 C 
ATOM      4  N   UNL     1      -3.904   3.495 -23.450  0.00  0.00    -0.218 N 
ATOM      5  C   UNL     1      -3.077   3.748 -24.420  0.00  0.00    +0.266 C 
ATOM      6  C   UNL     1      -1.824   3.421 -24.309  0.00  0.00    +0.042 A 
ATOM      7  C   UNL     1      -0.997   3.674 -25.280  0.00  0.00    +0.011 A 
ATOM      8  C   UNL     1       0.256   3.346 -25.169  0.00  0.00    +0.001 A 
ATOM      9  C   UNL     1       0.682   2.765 -24.087  0.00  0.00    +0.004 A 
ATOM     10  C   UNL     1      -0.144   2.511 -23.117  0.00  0.00    +0.056 A 
ATOM     11  C   UNL     1      -1.397   2.839 -23.228  0.00  0.00    +0.183 A 
ATOM     12  N   UNL     1      -2.224   2.585 -22.257  0.00  0.00    -0.043 NA
ATOM     13  C   UNL     1      -3.477   2.913 -22.368  0.00  0.00    +0.318 C 
ENDROOT
BRANCH   1  14
ATOM     14  O   UNL     1      -4.454   2.234 -20.379  0.00  0.00    -0.380 OA
ATOM     15  H   UNL     1      -5.337   1.905 -20.149  0.00  0.00    +0.211 HD
ENDBRANCH   1  14
TORSDOF 1
ENDMDL
MODEL 6
REMARK VINA RESULT:    -7.213      2.537      3.759
REMARK INTER + INTRA:          -7.424
REMARK INTER:                  -7.424
REMARK INTRA:                   0.000
REMARK UNBOUND:                 0.000
REMARK  Name = O[C@H]1CCN2Cc3ccccc3N=C12                                            ZINC000100051847
REMARK  1 active torsions:
REMARK  status: ('A' for Active; 'I' for Inactive)
REMARK    1  A    between atoms: O_1  and  C_2
REMARK                            x       y       z     vdW  Elec       q    Type
REMARK                         _______ _______ _______ _____ _____    ______ ____
ROOT
ATOM      1  C   UNL     1      -3.732   3.165 -26.065  0.00  0.00    +0.233 C 
ATOM      2  C   UNL     1      -2.604   3.402 -26.665  0.00  0.00    +0.087 C 
ATOM      3  C   UNL     1      -1.710   3.655 -25.755  0.00  0.00    +0.229 C 
ATOM      4  N   UNL     1      -2.286   3.574 -24.593  0.00  0.00    -0.218 N 
ATOM      5  C   UNL     1      -1.835   3.737 -23.385  0.00  0.00    +0.266 C 
ATOM      6  C   UNL     1      -2.633   3.597 -22.369  0.00  0.00    +0.042 A 
ATOM      7  C   UNL     1      -2.182   3.760 -21.160  0.00  0.00    +0.011 A 
ATOM      8  C   UNL     1      -2.980   3.620 -20.144  0.00  0.00    +0.001 A 
ATOM      9  C   UNL     1      -4.230   3.317 -20.335  0.00  0.00    +0.004 A 
ATOM     10  C   UNL     1      -4.681   3.154 -21.543  0.00  0.00    +0.056 A 
ATOM     11  C   UNL     1      -3.883   3.294 -22.559  0.00  0.00    +0.183 A 
ATOM     12  N   UNL     1      -4.334   3.131 -23.768  0.00  0.00    -0.043 NA
ATOM     13  C   UNL     1      -3.536   3.271 -24.784  0.00  0.00    +0.318 C 
ENDROOT
BRANCH   1  14
ATOM     14  O   UNL     1      -4.858   2.873 -26.645  0.00  0.00    -0.380 OA
ATOM     15  H   UNL     1      -5.309   2.176 -26.142  0.00  0.00    +0.211 HD
ENDBRANCH   1  14
TORSDOF 1
ENDMDL
MODEL 7
REMARK VINA RESULT:    -7.191      2.744      4.900
REMARK INTER + INTRA:          -7.401
REMARK INTER:                  -7.401
REMARK INTRA:                   0.000
REMARK UNBOUND:                 0.000
REMARK  Name = O[C@H]1CCN2Cc3ccccc3N=C12                                            ZINC000100051847
REMARK  1 active torsions:
REMARK  status: ('A' for Active; 'I' for Inactive)
REMARK    1  A    between atoms: O_1  and  C_2
REMARK                            x       y       z     vdW  Elec       q    Type
REMARK                         _______ _______ _______ _____ _____    ______ ____
ROOT
ATOM      1  C   UNL     1      -4.113   3.374 -25.829  0.00  0.00    +0.233 C 
ATOM      2  C   UNL     1      -5.010   3.612 -24.919  0.00  0.00    +0.087 C 
ATOM      3  C   UNL     1      -4.394   3.988 -23.837  0.00  0.00    +0.229 C 
ATOM      4  N   UNL     1      -3.117   3.983 -24.079  0.00  0.00    -0.218 N 
ATOM      5  C   UNL     1      -2.090   4.274 -23.337  0.00  0.00    +0.266 C 
ATOM      6  C   UNL     1      -0.889   4.186 -23.827  0.00  0.00    +0.042 A 
ATOM      7  C   UNL     1       0.139   4.477 -23.086  0.00  0.00    +0.011 A 
ATOM      8  C   UNL     1       1.339   4.389 -23.575  0.00  0.00    +0.001 A 
ATOM      9  C   UNL     1       1.513   4.009 -24.807  0.00  0.00    +0.004 A 
ATOM     10  C   UNL     1       0.486   3.718 -25.548  0.00  0.00    +0.056 A 
ATOM     11  C   UNL     1      -0.715   3.806 -25.058  0.00  0.00    +0.183 A 
ATOM     12  N   UNL     1      -1.742   3.515 -25.800  0.00  0.00    -0.043 NA
ATOM     13  C   UNL     1      -2.943   3.603 -25.310  0.00  0.00    +0.318 C 
ENDROOT
BRANCH   1  14
ATOM     14  O   UNL     1      -4.346   2.977 -27.045  0.00  0.00    -0.380 OA
ATOM     15  H   UNL     1      -4.299   2.008 -27.083  0.00  0.00    +0.211 HD
ENDBRANCH   1  14
TORSDOF 1
ENDMDL
MODEL 8
REMARK VINA RESULT:    -7.000      3.081      4.174
REMARK INTER + INTRA:          -7.205
REMARK INTER:                  -7.205
REMARK INTRA:                   0.000
REMARK UNBOUND:                 0.000
REMARK  Name = O[C@H]1CCN2Cc3ccccc3N=C12                                            ZINC000100051847
REMARK  1 active torsions:
REMARK  status: ('A' for Active; 'I' for Inactive)
REMARK    1  A    between atoms: O_1  and  C_2
REMARK                            x       y       z     vdW  Elec       q    Type
REMARK                         _______ _______ _______ _____ _____    ______ ____
ROOT
ATOM      1  C   UNL     1       3.628   1.953 -24.205  0.00  0.00    +0.233 C 
ATOM      2  C   UNL     1       4.578   2.736 -23.791  0.00  0.00    +0.087 C 
ATOM      3  C   UNL     1       4.036   3.848 -23.392  0.00  0.00    +0.229 C 
ATOM      4  N   UNL     1       2.751   3.752 -23.559  0.00  0.00    -0.218 N 
ATOM      5  C   UNL     1       1.778   4.580 -23.318  0.00  0.00    +0.266 C 
ATOM      6  C   UNL     1       0.553   4.235 -23.580  0.00  0.00    +0.042 A 
ATOM      7  C   UNL     1      -0.421   5.063 -23.339  0.00  0.00    +0.011 A 
ATOM      8  C   UNL     1      -1.647   4.718 -23.601  0.00  0.00    +0.001 A 
ATOM      9  C   UNL     1      -1.900   3.546 -24.104  0.00  0.00    +0.004 A 
ATOM     10  C   UNL     1      -0.927   2.719 -24.344  0.00  0.00    +0.056 A 
ATOM     11  C   UNL     1       0.299   3.063 -24.082  0.00  0.00    +0.183 A 
ATOM     12  N   UNL     1       1.273   2.236 -24.323  0.00  0.00    -0.043 NA
ATOM     13  C   UNL     1       2.498   2.580 -24.061  0.00  0.00    +0.318 C 
ENDROOT
BRANCH   1  14
ATOM     14  O   UNL     1       3.780   0.752 -24.679  0.00  0.00    -0.380 OA
ATOM     15  H   UNL     1       4.635   0.395 -24.388  0.00  0.00    +0.211 HD
ENDBRANCH   1  14
TORSDOF 1
ENDMDL
MODEL 9
REMARK VINA RESULT:    -6.583      2.992      5.898
REMARK INTER + INTRA:          -6.775
REMARK INTER:                  -6.775
REMARK INTRA:                   0.000
REMARK UNBOUND:                 0.000
REMARK  Name = O[C@H]1CCN2Cc3ccccc3N=C12                                            ZINC000100051847
REMARK  1 active torsions:
REMARK  status: ('A' for Active; 'I' for Inactive)
REMARK    1  A    between atoms: O_1  and  C_2
REMARK                            x       y       z     vdW  Elec       q    Type
REMARK                         _______ _______ _______ _____ _____    ______ ____
ROOT
ATOM      1  C   UNL     1      -1.274   2.969 -24.034  0.00  0.00    +0.233 C 
ATOM      2  C   UNL     1      -1.884   4.084 -23.762  0.00  0.00    +0.087 C 
ATOM      3  C   UNL     1      -0.985   4.965 -23.436  0.00  0.00    +0.229 C 
ATOM      4  N   UNL     1       0.180   4.394 -23.506  0.00  0.00    -0.218 N 
ATOM      5  C   UNL     1       1.381   4.838 -23.281  0.00  0.00    +0.266 C 
ATOM      6  C   UNL     1       2.403   4.049 -23.426  0.00  0.00    +0.042 A 
ATOM      7  C   UNL     1       3.605   4.492 -23.202  0.00  0.00    +0.011 A 
ATOM      8  C   UNL     1       4.627   3.703 -23.347  0.00  0.00    +0.001 A 
ATOM      9  C   UNL     1       4.449   2.469 -23.717  0.00  0.00    +0.004 A 
ATOM     10  C   UNL     1       3.248   2.025 -23.941  0.00  0.00    +0.056 A 
ATOM     11  C   UNL     1       2.226   2.815 -23.796  0.00  0.00    +0.183 A 
ATOM     12  N   UNL     1       1.024   2.371 -24.021  0.00  0.00    -0.043 NA
ATOM     13  C   UNL     1       0.002   3.161 -23.876  0.00  0.00    +0.318 C 
ENDROOT
BRANCH   1  14
ATOM     14  O   UNL     1      -1.841   1.858 -24.400  0.00  0.00    -0.380 OA
ATOM     15  H   UNL     1      -1.980   1.867 -25.361  0.00  0.00    +0.211 HD
ENDBRANCH   1  14
TORSDOF 1
ENDMDL
