MODEL 1
REMARK VINA RESULT:    -9.372      0.000      0.000
REMARK INTER + INTRA:         -10.501
REMARK INTER:                 -10.587
REMARK INTRA:                   0.086
REMARK UNBOUND:                 0.240
REMARK  Name = ZINC000005783606
REMARK  6 active torsions:
REMARK  status: ('A' for Active; 'I' for Inactive)
REMARK    1  A    between atoms: C_1  and  O_2
REMARK    2  A    between atoms: O_2  and  C_3
REMARK    3  A    between atoms: C_7  and  O_8
REMARK    4  A    between atoms: C_9  and  O_10
REMARK    5  A    between atoms: O_10  and  C_11
REMARK    6  A    between atoms: N_20  and  C_21
REMARK                            x       y       z     vdW  Elec       q    Type
REMARK                         _______ _______ _______ _____ _____    ______ ____
ROOT
ATOM      1  C   UNL     1       1.221   2.245 -22.618  0.00  0.00    +0.167 A 
ATOM      2  C   UNL     1       0.045   2.370 -22.078  0.00  0.00    +0.076 A 
ATOM      3  C   UNL     1      -0.970   2.726 -22.807  0.00  0.00    +0.060 A 
ATOM      4  C   UNL     1      -0.810   2.957 -24.076  0.00  0.00    +0.091 A 
ATOM      5  C   UNL     1      -1.827   3.313 -24.805  0.00  0.00    +0.201 A 
ATOM      6  C   UNL     1      -3.002   3.438 -24.265  0.00  0.00    +0.046 A 
ATOM      7  C   UNL     1      -4.018   3.794 -24.994  0.00  0.00    +0.014 A 
ATOM      8  C   UNL     1      -5.194   3.919 -24.454  0.00  0.00    +0.001 A 
ATOM      9  C   UNL     1      -5.354   3.688 -23.185  0.00  0.00    +0.002 A 
ATOM     10  C   UNL     1      -4.337   3.332 -22.455  0.00  0.00    +0.026 A 
ATOM     11  C   UNL     1      -3.162   3.207 -22.996  0.00  0.00    +0.053 A 
ATOM     12  O   UNL     1      -1.667   3.543 -26.075  0.00  0.00    -0.286 OA
ATOM     13  C   UNL     1       0.365   2.832 -24.617  0.00  0.00    +0.175 A 
ATOM     14  N   UNL     1      -2.147   2.852 -22.267  0.00  0.00    -0.343 N 
ATOM     15  C   UNL     1      -2.306   2.621 -20.997  0.00  0.00    +0.149 C 
ATOM     16  C   UNL     1       1.380   2.476 -23.888  0.00  0.00    +0.204 A 
ENDROOT
BRANCH   1  18
ATOM     17  C   UNL     1       2.055   1.525 -20.655  0.00  0.00    +0.277 C 
ATOM     18  O   UNL     1       2.236   1.890 -21.889  0.00  0.00    -0.491 OA
ENDBRANCH   1  18
BRANCH  13  19
ATOM     19  O   UNL     1       0.525   3.062 -25.886  0.00  0.00    -0.503 OA
ATOM     20  H   UNL     1      -0.069   3.629 -26.338  0.00  0.00    +0.292 HD
ENDBRANCH  13  19
BRANCH  16  21
ATOM     21  O   UNL     1       2.557   2.350 -24.428  0.00  0.00    -0.488 OA
ATOM     22  C   UNL     1       3.007   1.171 -24.738  0.00  0.00    +0.277 C 
ENDBRANCH  16  21
TORSDOF 3
ENDMDL
MODEL 2
REMARK VINA RESULT:    -8.845      1.455      2.984
REMARK INTER + INTRA:          -9.897
REMARK INTER:                  -9.954
REMARK INTRA:                   0.058
REMARK UNBOUND:                 0.240
REMARK  Name = ZINC000005783606
REMARK  6 active torsions:
REMARK  status: ('A' for Active; 'I' for Inactive)
REMARK    1  A    between atoms: C_1  and  O_2
REMARK    2  A    between atoms: O_2  and  C_3
REMARK    3  A    between atoms: C_7  and  O_8
REMARK    4  A    between atoms: C_9  and  O_10
REMARK    5  A    between atoms: O_10  and  C_11
REMARK    6  A    between atoms: N_20  and  C_21
REMARK                            x       y       z     vdW  Elec       q    Type
REMARK                         _______ _______ _______ _____ _____    ______ ____
ROOT
ATOM      1  C   UNL     1       1.065   2.539 -23.890  0.00  0.00    +0.167 A 
ATOM      2  C   UNL     1      -0.033   2.934 -24.462  0.00  0.00    +0.076 A 
ATOM      3  C   UNL     1      -1.145   2.955 -23.788  0.00  0.00    +0.060 A 
ATOM      4  C   UNL     1      -1.158   2.582 -22.543  0.00  0.00    +0.091 A 
ATOM      5  C   UNL     1      -2.270   2.604 -21.870  0.00  0.00    +0.201 A 
ATOM      6  C   UNL     1      -3.368   2.999 -22.441  0.00  0.00    +0.046 A 
ATOM      7  C   UNL     1      -4.480   3.020 -21.768  0.00  0.00    +0.014 A 
ATOM      8  C   UNL     1      -5.579   3.415 -22.339  0.00  0.00    +0.001 A 
ATOM      9  C   UNL     1      -5.566   3.789 -23.584  0.00  0.00    +0.002 A 
ATOM     10  C   UNL     1      -4.454   3.767 -24.258  0.00  0.00    +0.026 A 
ATOM     11  C   UNL     1      -3.355   3.372 -23.686  0.00  0.00    +0.053 A 
ATOM     12  O   UNL     1      -2.283   2.230 -20.624  0.00  0.00    -0.286 OA
ATOM     13  C   UNL     1      -0.059   2.187 -21.972  0.00  0.00    +0.175 A 
ATOM     14  N   UNL     1      -2.244   3.351 -24.360  0.00  0.00    -0.343 N 
ATOM     15  C   UNL     1      -2.231   3.724 -25.605  0.00  0.00    +0.149 C 
ATOM     16  C   UNL     1       1.052   2.165 -22.645  0.00  0.00    +0.204 A 
ENDROOT
BRANCH   1  18
ATOM     17  C   UNL     1       2.288   1.758 -25.613  0.00  0.00    +0.277 C 
ATOM     18  O   UNL     1       2.177   2.517 -24.564  0.00  0.00    -0.491 OA
ENDBRANCH   1  18
BRANCH  13  19
ATOM     19  O   UNL     1      -0.072   1.814 -20.726  0.00  0.00    -0.503 OA
ATOM     20  H   UNL     1       0.517   2.206 -20.113  0.00  0.00    +0.292 HD
ENDBRANCH  13  19
BRANCH  16  21
ATOM     21  O   UNL     1       2.151   1.770 -22.074  0.00  0.00    -0.488 OA
ATOM     22  C   UNL     1       2.529   0.531 -22.178  0.00  0.00    +0.277 C 
ENDBRANCH  16  21
TORSDOF 3
ENDMDL
MODEL 3
REMARK VINA RESULT:    -8.631      1.558      5.290
REMARK INTER + INTRA:          -9.653
REMARK INTER:                  -9.711
REMARK INTRA:                   0.059
REMARK UNBOUND:                 0.240
REMARK  Name = ZINC000005783606
REMARK  6 active torsions:
REMARK  status: ('A' for Active; 'I' for Inactive)
REMARK    1  A    between atoms: C_1  and  O_2
REMARK    2  A    between atoms: O_2  and  C_3
REMARK    3  A    between atoms: C_7  and  O_8
REMARK    4  A    between atoms: C_9  and  O_10
REMARK    5  A    between atoms: O_10  and  C_11
REMARK    6  A    between atoms: N_20  and  C_21
REMARK                            x       y       z     vdW  Elec       q    Type
REMARK                         _______ _______ _______ _____ _____    ______ ____
ROOT
ATOM      1  C   UNL     1      -2.503   3.190 -23.406  0.00  0.00    +0.167 A 
ATOM      2  C   UNL     1      -1.678   2.609 -22.588  0.00  0.00    +0.076 A 
ATOM      3  C   UNL     1      -0.444   2.407 -22.945  0.00  0.00    +0.060 A 
ATOM      4  C   UNL     1      -0.037   2.786 -24.119  0.00  0.00    +0.091 A 
ATOM      5  C   UNL     1       1.198   2.583 -24.476  0.00  0.00    +0.201 A 
ATOM      6  C   UNL     1       2.023   2.002 -23.658  0.00  0.00    +0.046 A 
ATOM      7  C   UNL     1       3.257   1.799 -24.015  0.00  0.00    +0.014 A 
ATOM      8  C   UNL     1       4.084   1.218 -23.197  0.00  0.00    +0.001 A 
ATOM      9  C   UNL     1       3.676   0.839 -22.022  0.00  0.00    +0.002 A 
ATOM     10  C   UNL     1       2.442   1.041 -21.665  0.00  0.00    +0.026 A 
ATOM     11  C   UNL     1       1.616   1.623 -22.483  0.00  0.00    +0.053 A 
ATOM     12  O   UNL     1       1.605   2.962 -25.651  0.00  0.00    -0.286 OA
ATOM     13  C   UNL     1      -0.862   3.367 -24.937  0.00  0.00    +0.175 A 
ATOM     14  N   UNL     1       0.383   1.825 -22.126  0.00  0.00    -0.343 N 
ATOM     15  C   UNL     1      -0.025   1.446 -20.952  0.00  0.00    +0.149 C 
ATOM     16  C   UNL     1      -2.096   3.569 -24.581  0.00  0.00    +0.204 A 
ENDROOT
BRANCH   1  18
ATOM     17  C   UNL     1      -4.145   3.015 -21.874  0.00  0.00    +0.277 C 
ATOM     18  O   UNL     1      -3.737   3.393 -23.049  0.00  0.00    -0.491 OA
ENDBRANCH   1  18
BRANCH  13  19
ATOM     19  O   UNL     1      -0.455   3.746 -26.112  0.00  0.00    -0.503 OA
ATOM     20  H   UNL     1      -1.078   3.943 -26.783  0.00  0.00    +0.292 HD
ENDBRANCH  13  19
BRANCH  16  21
ATOM     21  O   UNL     1      -2.923   4.151 -25.399  0.00  0.00    -0.488 OA
ATOM     22  C   UNL     1      -3.612   3.440 -26.241  0.00  0.00    +0.277 C 
ENDBRANCH  16  21
TORSDOF 3
ENDMDL
MODEL 4
REMARK VINA RESULT:    -8.492      1.997      6.024
REMARK INTER + INTRA:          -9.493
REMARK INTER:                  -9.605
REMARK INTRA:                   0.112
REMARK UNBOUND:                 0.240
REMARK  Name = ZINC000005783606
REMARK  6 active torsions:
REMARK  status: ('A' for Active; 'I' for Inactive)
REMARK    1  A    between atoms: C_1  and  O_2
REMARK    2  A    between atoms: O_2  and  C_3
REMARK    3  A    between atoms: C_7  and  O_8
REMARK    4  A    between atoms: C_9  and  O_10
REMARK    5  A    between atoms: O_10  and  C_11
REMARK    6  A    between atoms: N_20  and  C_21
REMARK                            x       y       z     vdW  Elec       q    Type
REMARK                         _______ _______ _______ _____ _____    ______ ____
ROOT
ATOM      1  C   UNL     1      -2.567   3.598 -24.195  0.00  0.00    +0.167 A 
ATOM      2  C   UNL     1      -1.327   3.734 -24.558  0.00  0.00    +0.076 A 
ATOM      3  C   UNL     1      -0.379   3.204 -23.845  0.00  0.00    +0.060 A 
ATOM      4  C   UNL     1      -0.671   2.537 -22.767  0.00  0.00    +0.091 A 
ATOM      5  C   UNL     1       0.278   2.007 -22.054  0.00  0.00    +0.201 A 
ATOM      6  C   UNL     1       1.518   2.143 -22.417  0.00  0.00    +0.046 A 
ATOM      7  C   UNL     1       2.466   1.612 -21.704  0.00  0.00    +0.014 A 
ATOM      8  C   UNL     1       3.708   1.748 -22.067  0.00  0.00    +0.001 A 
ATOM      9  C   UNL     1       4.000   2.414 -23.145  0.00  0.00    +0.002 A 
ATOM     10  C   UNL     1       3.051   2.945 -23.859  0.00  0.00    +0.026 A 
ATOM     11  C   UNL     1       1.810   2.809 -23.495  0.00  0.00    +0.053 A 
ATOM     12  O   UNL     1      -0.014   1.340 -20.976  0.00  0.00    -0.286 OA
ATOM     13  C   UNL     1      -1.911   2.401 -22.404  0.00  0.00    +0.175 A 
ATOM     14  N   UNL     1       0.862   3.339 -24.208  0.00  0.00    -0.343 N 
ATOM     15  C   UNL     1       1.155   4.006 -25.286  0.00  0.00    +0.149 C 
ATOM     16  C   UNL     1      -2.859   2.932 -23.117  0.00  0.00    +0.204 A 
ENDROOT
BRANCH   1  18
ATOM     17  C   UNL     1      -3.703   3.739 -26.134  0.00  0.00    +0.277 C 
ATOM     18  O   UNL     1      -3.515   4.129 -24.908  0.00  0.00    -0.491 OA
ENDBRANCH   1  18
BRANCH  13  19
ATOM     19  O   UNL     1      -2.204   1.735 -21.326  0.00  0.00    -0.503 OA
ATOM     20  H   UNL     1      -3.076   1.755 -20.986  0.00  0.00    +0.292 HD
ENDBRANCH  13  19
BRANCH  16  21
ATOM     21  O   UNL     1      -4.101   2.796 -22.754  0.00  0.00    -0.488 OA
ATOM     22  C   UNL     1      -4.579   3.528 -21.791  0.00  0.00    +0.277 C 
ENDBRANCH  16  21
TORSDOF 3
ENDMDL
MODEL 5
REMARK VINA RESULT:    -7.957      2.078      2.797
REMARK INTER + INTRA:          -8.879
REMARK INTER:                  -8.939
REMARK INTRA:                   0.060
REMARK UNBOUND:                 0.240
REMARK  Name = ZINC000005783606
REMARK  6 active torsions:
REMARK  status: ('A' for Active; 'I' for Inactive)
REMARK    1  A    between atoms: C_1  and  O_2
REMARK    2  A    between atoms: O_2  and  C_3
REMARK    3  A    between atoms: C_7  and  O_8
REMARK    4  A    between atoms: C_9  and  O_10
REMARK    5  A    between atoms: O_10  and  C_11
REMARK    6  A    between atoms: N_20  and  C_21
REMARK                            x       y       z     vdW  Elec       q    Type
REMARK                         _______ _______ _______ _____ _____    ______ ____
ROOT
ATOM      1  C   UNL     1       3.367   2.098 -21.920  0.00  0.00    +0.167 A 
ATOM      2  C   UNL     1       2.124   1.720 -21.908  0.00  0.00    +0.076 A 
ATOM      3  C   UNL     1       1.207   2.484 -22.423  0.00  0.00    +0.060 A 
ATOM      4  C   UNL     1       1.534   3.627 -22.950  0.00  0.00    +0.091 A 
ATOM      5  C   UNL     1       0.616   4.391 -23.466  0.00  0.00    +0.201 A 
ATOM      6  C   UNL     1      -0.627   4.012 -23.454  0.00  0.00    +0.046 A 
ATOM      7  C   UNL     1      -1.544   4.776 -23.969  0.00  0.00    +0.014 A 
ATOM      8  C   UNL     1      -2.788   4.398 -23.957  0.00  0.00    +0.001 A 
ATOM      9  C   UNL     1      -3.115   3.256 -23.430  0.00  0.00    +0.002 A 
ATOM     10  C   UNL     1      -2.197   2.491 -22.915  0.00  0.00    +0.026 A 
ATOM     11  C   UNL     1      -0.954   2.870 -22.927  0.00  0.00    +0.053 A 
ATOM     12  O   UNL     1       0.943   5.533 -23.993  0.00  0.00    -0.286 OA
ATOM     13  C   UNL     1       2.777   4.005 -22.962  0.00  0.00    +0.175 A 
ATOM     14  N   UNL     1      -0.037   2.106 -22.411  0.00  0.00    -0.343 N 
ATOM     15  C   UNL     1      -0.364   0.963 -21.884  0.00  0.00    +0.149 C 
ATOM     16  C   UNL     1       3.694   3.241 -22.447  0.00  0.00    +0.204 A 
ENDROOT
BRANCH   1  18
ATOM     17  C   UNL     1       3.945   0.317 -20.669  0.00  0.00    +0.277 C 
ATOM     18  O   UNL     1       4.283   1.334 -21.404  0.00  0.00    -0.491 OA
ENDBRANCH   1  18
BRANCH  13  19
ATOM     19  O   UNL     1       3.104   5.147 -23.489  0.00  0.00    -0.503 OA
ATOM     20  H   UNL     1       2.965   5.941 -23.011  0.00  0.00    +0.292 HD
ENDBRANCH  13  19
BRANCH  16  21
ATOM     21  O   UNL     1       4.938   3.619 -22.458  0.00  0.00    -0.488 OA
ATOM     22  C   UNL     1       5.699   3.318 -23.468  0.00  0.00    +0.277 C 
ENDBRANCH  16  21
TORSDOF 3
ENDMDL
MODEL 6
REMARK VINA RESULT:    -7.458      3.519      6.702
REMARK INTER + INTRA:          -8.308
REMARK INTER:                  -8.480
REMARK INTRA:                   0.172
REMARK UNBOUND:                 0.240
REMARK  Name = ZINC000005783606
REMARK  6 active torsions:
REMARK  status: ('A' for Active; 'I' for Inactive)
REMARK    1  A    between atoms: C_1  and  O_2
REMARK    2  A    between atoms: O_2  and  C_3
REMARK    3  A    between atoms: C_7  and  O_8
REMARK    4  A    between atoms: C_9  and  O_10
REMARK    5  A    between atoms: O_10  and  C_11
REMARK    6  A    between atoms: N_20  and  C_21
REMARK                            x       y       z     vdW  Elec       q    Type
REMARK                         _______ _______ _______ _____ _____    ______ ____
ROOT
ATOM      1  C   UNL     1       0.539   2.423 -23.032  0.00  0.00    +0.167 A 
ATOM      2  C   UNL     1       1.744   1.962 -22.874  0.00  0.00    +0.076 A 
ATOM      3  C   UNL     1       2.756   2.778 -22.869  0.00  0.00    +0.060 A 
ATOM      4  C   UNL     1       2.563   4.054 -23.022  0.00  0.00    +0.091 A 
ATOM      5  C   UNL     1       3.575   4.871 -23.016  0.00  0.00    +0.201 A 
ATOM      6  C   UNL     1       4.780   4.410 -22.858  0.00  0.00    +0.046 A 
ATOM      7  C   UNL     1       5.792   5.226 -22.853  0.00  0.00    +0.014 A 
ATOM      8  C   UNL     1       6.998   4.766 -22.694  0.00  0.00    +0.001 A 
ATOM      9  C   UNL     1       7.191   3.489 -22.541  0.00  0.00    +0.002 A 
ATOM     10  C   UNL     1       6.179   2.673 -22.546  0.00  0.00    +0.026 A 
ATOM     11  C   UNL     1       4.974   3.134 -22.705  0.00  0.00    +0.053 A 
ATOM     12  O   UNL     1       3.382   6.147 -23.169  0.00  0.00    -0.286 OA
ATOM     13  C   UNL     1       1.358   4.515 -23.180  0.00  0.00    +0.175 A 
ATOM     14  N   UNL     1       3.962   2.318 -22.710  0.00  0.00    -0.343 N 
ATOM     15  C   UNL     1       4.155   1.041 -22.557  0.00  0.00    +0.149 C 
ATOM     16  C   UNL     1       0.346   3.699 -23.185  0.00  0.00    +0.204 A 
ENDROOT
BRANCH   1  18
ATOM     17  C   UNL     1      -0.946   1.149 -21.917  0.00  0.00    +0.277 C 
ATOM     18  O   UNL     1      -0.473   1.607 -23.037  0.00  0.00    -0.491 OA
ENDBRANCH   1  18
BRANCH  13  19
ATOM     19  O   UNL     1       1.165   5.791 -23.333  0.00  0.00    -0.503 OA
ATOM     20  H   UNL     1       0.403   6.099 -23.784  0.00  0.00    +0.292 HD
ENDBRANCH  13  19
BRANCH  16  21
ATOM     21  O   UNL     1      -0.860   4.159 -23.344  0.00  0.00    -0.488 OA
ATOM     22  C   UNL     1      -1.480   4.714 -22.345  0.00  0.00    +0.277 C 
ENDBRANCH  16  21
TORSDOF 3
ENDMDL
