MODEL 1
REMARK VINA RESULT:    -8.090      0.000      0.000
REMARK INTER + INTRA:          -8.601
REMARK INTER:                  -9.002
REMARK INTRA:                   0.401
REMARK UNBOUND:                 0.435
REMARK  Name = ZINC000000314951
REMARK  4 active torsions:
REMARK  status: ('A' for Active; 'I' for Inactive)
REMARK    1  A    between atoms: C_1  and  O_2
REMARK    2  A    between atoms: O_2  and  C_3
REMARK    3  A    between atoms: C_9  and  O_10
REMARK    4  A    between atoms: O_10  and  C_11
REMARK                            x       y       z     vdW  Elec       q    Type
REMARK                         _______ _______ _______ _____ _____    ______ ____
ROOT
ATOM      1  C   UNL     1      -1.150   2.791 -22.423  0.00  0.00    +0.142 A 
ATOM      2  C   UNL     1      -0.517   3.089 -23.519  0.00  0.00    +0.066 A 
ATOM      3  C   UNL     1       0.741   3.029 -23.840  0.00  0.00    +0.053 A 
ATOM      4  C   UNL     1       0.863   3.442 -25.066  0.00  0.00    +0.196 A 
ATOM      5  O   UNL     1      -0.321   3.758 -25.503  0.00  0.00    -0.459 OA
ATOM      6  C   UNL     1      -1.173   3.539 -24.547  0.00  0.00    +0.183 A 
ATOM      7  C   UNL     1      -2.462   3.692 -24.479  0.00  0.00    +0.206 A 
ATOM      8  C   UNL     1      -3.095   3.394 -23.383  0.00  0.00    +0.188 A 
ATOM      9  O   UNL     1      -4.385   3.547 -23.315  0.00  0.00    -0.418 OA
ATOM     10  C   UNL     1      -5.018   3.249 -22.220  0.00  0.00    +0.337 A 
ATOM     11  C   UNL     1      -4.362   2.799 -21.192  0.00  0.00    +0.093 A 
ATOM     12  C   UNL     1      -3.073   2.646 -21.259  0.00  0.00    +0.022 A 
ATOM     13  O   UNL     1      -6.307   3.402 -22.152  0.00  0.00    -0.245 OA
ATOM     14  C   UNL     1      -2.439   2.944 -22.355  0.00  0.00    +0.064 A 
ENDROOT
BRANCH   1  16
ATOM     15  C   UNL     1      -0.040   1.123 -21.396  0.00  0.00    +0.277 C 
ATOM     16  O   UNL     1      -0.494   2.341 -21.395  0.00  0.00    -0.494 OA
ENDBRANCH   1  16
BRANCH   7  17
ATOM     17  O   UNL     1      -3.118   4.142 -25.507  0.00  0.00    -0.488 OA
ATOM     18  C   UNL     1      -3.297   3.384 -26.547  0.00  0.00    +0.277 C 
ENDBRANCH   7  17
TORSDOF 2
ENDMDL
MODEL 2
REMARK VINA RESULT:    -7.905      1.505      3.028
REMARK INTER + INTRA:          -8.394
REMARK INTER:                  -8.791
REMARK INTRA:                   0.397
REMARK UNBOUND:                 0.435
REMARK  Name = ZINC000000314951
REMARK  4 active torsions:
REMARK  status: ('A' for Active; 'I' for Inactive)
REMARK    1  A    between atoms: C_1  and  O_2
REMARK    2  A    between atoms: O_2  and  C_3
REMARK    3  A    between atoms: C_9  and  O_10
REMARK    4  A    between atoms: O_10  and  C_11
REMARK                            x       y       z     vdW  Elec       q    Type
REMARK                         _______ _______ _______ _____ _____    ______ ____
ROOT
ATOM      1  C   UNL     1      -2.224   2.592 -22.057  0.00  0.00    +0.142 A 
ATOM      2  C   UNL     1      -0.978   2.224 -22.036  0.00  0.00    +0.066 A 
ATOM      3  C   UNL     1      -0.248   1.676 -21.109  0.00  0.00    +0.053 A 
ATOM      4  C   UNL     1       0.947   1.503 -21.589  0.00  0.00    +0.196 A 
ATOM      5  O   UNL     1       0.957   1.944 -22.813  0.00  0.00    -0.459 OA
ATOM      6  C   UNL     1      -0.233   2.389 -23.088  0.00  0.00    +0.183 A 
ATOM      7  C   UNL     1      -0.734   2.924 -24.162  0.00  0.00    +0.206 A 
ATOM      8  C   UNL     1      -1.980   3.293 -24.183  0.00  0.00    +0.188 A 
ATOM      9  O   UNL     1      -2.482   3.828 -25.257  0.00  0.00    -0.418 OA
ATOM     10  C   UNL     1      -3.728   4.196 -25.278  0.00  0.00    +0.337 A 
ATOM     11  C   UNL     1      -4.473   4.031 -24.226  0.00  0.00    +0.093 A 
ATOM     12  C   UNL     1      -3.972   3.496 -23.152  0.00  0.00    +0.022 A 
ATOM     13  O   UNL     1      -4.229   4.731 -26.351  0.00  0.00    -0.245 OA
ATOM     14  C   UNL     1      -2.725   3.127 -23.131  0.00  0.00    +0.064 A 
ENDROOT
BRANCH   1  16
ATOM     15  C   UNL     1      -3.106   3.393 -20.147  0.00  0.00    +0.277 C 
ATOM     16  O   UNL     1      -2.969   2.427 -21.005  0.00  0.00    -0.494 OA
ENDBRANCH   1  16
BRANCH   7  17
ATOM     17  O   UNL     1       0.011   3.089 -25.214  0.00  0.00    -0.488 OA
ATOM     18  C   UNL     1       0.852   4.079 -25.266  0.00  0.00    +0.277 C 
ENDBRANCH   7  17
TORSDOF 2
ENDMDL
MODEL 3
REMARK VINA RESULT:    -7.873      1.429      4.158
REMARK INTER + INTRA:          -8.359
REMARK INTER:                  -8.802
REMARK INTRA:                   0.443
REMARK UNBOUND:                 0.435
REMARK  Name = ZINC000000314951
REMARK  4 active torsions:
REMARK  status: ('A' for Active; 'I' for Inactive)
REMARK    1  A    between atoms: C_1  and  O_2
REMARK    2  A    between atoms: O_2  and  C_3
REMARK    3  A    between atoms: C_9  and  O_10
REMARK    4  A    between atoms: O_10  and  C_11
REMARK                            x       y       z     vdW  Elec       q    Type
REMARK                         _______ _______ _______ _____ _____    ______ ____
ROOT
ATOM      1  C   UNL     1      -2.464   2.801 -22.424  0.00  0.00    +0.142 A 
ATOM      2  C   UNL     1      -2.853   3.356 -23.533  0.00  0.00    +0.066 A 
ATOM      3  C   UNL     1      -3.991   3.870 -23.897  0.00  0.00    +0.053 A 
ATOM      4  C   UNL     1      -3.866   4.299 -25.117  0.00  0.00    +0.196 A 
ATOM      5  O   UNL     1      -2.650   4.051 -25.509  0.00  0.00    -0.459 OA
ATOM      6  C   UNL     1      -2.025   3.468 -24.529  0.00  0.00    +0.183 A 
ATOM      7  C   UNL     1      -0.808   3.025 -24.416  0.00  0.00    +0.206 A 
ATOM      8  C   UNL     1      -0.420   2.470 -23.307  0.00  0.00    +0.188 A 
ATOM      9  O   UNL     1       0.798   2.027 -23.193  0.00  0.00    -0.418 OA
ATOM     10  C   UNL     1       1.186   1.472 -22.084  0.00  0.00    +0.337 A 
ATOM     11  C   UNL     1       0.358   1.360 -21.088  0.00  0.00    +0.093 A 
ATOM     12  C   UNL     1      -0.858   1.803 -21.201  0.00  0.00    +0.022 A 
ATOM     13  O   UNL     1       2.403   1.029 -21.970  0.00  0.00    -0.245 OA
ATOM     14  C   UNL     1      -1.248   2.358 -22.311  0.00  0.00    +0.064 A 
ENDROOT
BRANCH   1  16
ATOM     15  C   UNL     1      -3.380   3.639 -20.545  0.00  0.00    +0.277 C 
ATOM     16  O   UNL     1      -3.292   2.689 -21.428  0.00  0.00    -0.494 OA
ENDBRANCH   1  16
BRANCH   7  17
ATOM     17  O   UNL     1       0.020   3.137 -25.412  0.00  0.00    -0.488 OA
ATOM     18  C   UNL     1       0.867   4.122 -25.445  0.00  0.00    +0.277 C 
ENDBRANCH   7  17
TORSDOF 2
ENDMDL
MODEL 4
REMARK VINA RESULT:    -7.866      1.373      3.521
REMARK INTER + INTRA:          -8.350
REMARK INTER:                  -8.718
REMARK INTRA:                   0.368
REMARK UNBOUND:                 0.435
REMARK  Name = ZINC000000314951
REMARK  4 active torsions:
REMARK  status: ('A' for Active; 'I' for Inactive)
REMARK    1  A    between atoms: C_1  and  O_2
REMARK    2  A    between atoms: O_2  and  C_3
REMARK    3  A    between atoms: C_9  and  O_10
REMARK    4  A    between atoms: O_10  and  C_11
REMARK                            x       y       z     vdW  Elec       q    Type
REMARK                         _______ _______ _______ _____ _____    ______ ____
ROOT
ATOM      1  C   UNL     1      -0.528   2.876 -24.111  0.00  0.00    +0.142 A 
ATOM      2  C   UNL     1      -0.098   2.402 -22.980  0.00  0.00    +0.066 A 
ATOM      3  C   UNL     1       1.068   1.961 -22.608  0.00  0.00    +0.053 A 
ATOM      4  C   UNL     1       0.981   1.595 -21.364  0.00  0.00    +0.196 A 
ATOM      5  O   UNL     1      -0.238   1.810 -20.966  0.00  0.00    -0.459 OA
ATOM      6  C   UNL     1      -0.904   2.308 -21.965  0.00  0.00    +0.183 A 
ATOM      7  C   UNL     1      -2.142   2.689 -22.081  0.00  0.00    +0.206 A 
ATOM      8  C   UNL     1      -2.572   3.163 -23.212  0.00  0.00    +0.188 A 
ATOM      9  O   UNL     1      -3.810   3.545 -23.329  0.00  0.00    -0.418 OA
ATOM     10  C   UNL     1      -4.240   4.019 -24.460  0.00  0.00    +0.337 A 
ATOM     11  C   UNL     1      -3.433   4.112 -25.475  0.00  0.00    +0.093 A 
ATOM     12  C   UNL     1      -2.196   3.731 -25.359  0.00  0.00    +0.022 A 
ATOM     13  O   UNL     1      -5.477   4.400 -24.576  0.00  0.00    -0.245 OA
ATOM     14  C   UNL     1      -1.765   3.257 -24.227  0.00  0.00    +0.064 A 
ENDROOT
BRANCH   1  16
ATOM     15  C   UNL     1       1.072   3.994 -25.234  0.00  0.00    +0.277 C 
ATOM     16  O   UNL     1       0.279   2.969 -25.126  0.00  0.00    -0.494 OA
ENDBRANCH   1  16
BRANCH   7  17
ATOM     17  O   UNL     1      -2.948   2.596 -21.066  0.00  0.00    -0.488 OA
ATOM     18  C   UNL     1      -3.052   3.582 -20.225  0.00  0.00    +0.277 C 
ENDBRANCH   7  17
TORSDOF 2
ENDMDL
MODEL 5
REMARK VINA RESULT:    -7.803      1.356      4.567
REMARK INTER + INTRA:          -8.280
REMARK INTER:                  -8.697
REMARK INTRA:                   0.418
REMARK UNBOUND:                 0.435
REMARK  Name = ZINC000000314951
REMARK  4 active torsions:
REMARK  status: ('A' for Active; 'I' for Inactive)
REMARK    1  A    between atoms: C_1  and  O_2
REMARK    2  A    between atoms: O_2  and  C_3
REMARK    3  A    between atoms: C_9  and  O_10
REMARK    4  A    between atoms: O_10  and  C_11
REMARK                            x       y       z     vdW  Elec       q    Type
REMARK                         _______ _______ _______ _____ _____    ______ ____
ROOT
ATOM      1  C   UNL     1      -0.654   2.963 -24.273  0.00  0.00    +0.142 A 
ATOM      2  C   UNL     1      -1.910   3.289 -24.337  0.00  0.00    +0.066 A 
ATOM      3  C   UNL     1      -2.645   3.732 -25.314  0.00  0.00    +0.053 A 
ATOM      4  C   UNL     1      -3.851   3.907 -24.862  0.00  0.00    +0.196 A 
ATOM      5  O   UNL     1      -3.862   3.571 -23.606  0.00  0.00    -0.459 OA
ATOM      6  C   UNL     1      -2.662   3.190 -23.282  0.00  0.00    +0.183 A 
ATOM      7  C   UNL     1      -2.158   2.765 -22.162  0.00  0.00    +0.206 A 
ATOM      8  C   UNL     1      -0.901   2.439 -22.098  0.00  0.00    +0.188 A 
ATOM      9  O   UNL     1      -0.396   2.014 -20.977  0.00  0.00    -0.418 OA
ATOM     10  C   UNL     1       0.861   1.688 -20.913  0.00  0.00    +0.337 A 
ATOM     11  C   UNL     1       1.613   1.787 -21.969  0.00  0.00    +0.093 A 
ATOM     12  C   UNL     1       1.108   2.212 -23.089  0.00  0.00    +0.022 A 
ATOM     13  O   UNL     1       1.365   1.263 -19.793  0.00  0.00    -0.245 OA
ATOM     14  C   UNL     1      -0.149   2.538 -23.153  0.00  0.00    +0.064 A 
ENDROOT
BRANCH   1  16
ATOM     15  C   UNL     1       0.842   4.114 -25.501  0.00  0.00    +0.277 C 
ATOM     16  O   UNL     1       0.099   3.062 -25.329  0.00  0.00    -0.494 OA
ENDBRANCH   1  16
BRANCH   7  17
ATOM     17  O   UNL     1      -2.910   2.666 -21.106  0.00  0.00    -0.488 OA
ATOM     18  C   UNL     1      -3.140   3.713 -20.371  0.00  0.00    +0.277 C 
ENDBRANCH   7  17
TORSDOF 2
ENDMDL
MODEL 6
REMARK VINA RESULT:    -7.799      1.227      4.245
REMARK INTER + INTRA:          -8.276
REMARK INTER:                  -8.771
REMARK INTRA:                   0.495
REMARK UNBOUND:                 0.435
REMARK  Name = ZINC000000314951
REMARK  4 active torsions:
REMARK  status: ('A' for Active; 'I' for Inactive)
REMARK    1  A    between atoms: C_1  and  O_2
REMARK    2  A    between atoms: O_2  and  C_3
REMARK    3  A    between atoms: C_9  and  O_10
REMARK    4  A    between atoms: O_10  and  C_11
REMARK                            x       y       z     vdW  Elec       q    Type
REMARK                         _______ _______ _______ _____ _____    ______ ____
ROOT
ATOM      1  C   UNL     1      -2.742   3.283 -22.099  0.00  0.00    +0.142 A 
ATOM      2  C   UNL     1      -3.971   3.378 -22.513  0.00  0.00    +0.066 A 
ATOM      3  C   UNL     1      -5.108   3.216 -21.904  0.00  0.00    +0.053 A 
ATOM      4  C   UNL     1      -6.058   3.425 -22.765  0.00  0.00    +0.196 A 
ATOM      5  O   UNL     1      -5.508   3.716 -23.908  0.00  0.00    -0.459 OA
ATOM      6  C   UNL     1      -4.218   3.686 -23.751  0.00  0.00    +0.183 A 
ATOM      7  C   UNL     1      -3.237   3.901 -24.576  0.00  0.00    +0.206 A 
ATOM      8  C   UNL     1      -2.008   3.807 -24.162  0.00  0.00    +0.188 A 
ATOM      9  O   UNL     1      -1.026   4.021 -24.987  0.00  0.00    -0.418 OA
ATOM     10  C   UNL     1       0.202   3.927 -24.574  0.00  0.00    +0.337 A 
ATOM     11  C   UNL     1       0.450   3.619 -23.336  0.00  0.00    +0.093 A 
ATOM     12  C   UNL     1      -0.531   3.404 -22.511  0.00  0.00    +0.022 A 
ATOM     13  O   UNL     1       1.184   4.142 -25.399  0.00  0.00    -0.245 OA
ATOM     14  C   UNL     1      -1.761   3.498 -22.924  0.00  0.00    +0.064 A 
ENDROOT
BRANCH   1  16
ATOM     15  C   UNL     1      -2.912   3.747 -19.902  0.00  0.00    +0.277 C 
ATOM     16  O   UNL     1      -2.494   2.975 -20.861  0.00  0.00    -0.494 OA
ENDBRANCH   1  16
BRANCH   7  17
ATOM     17  O   UNL     1      -3.485   4.210 -25.814  0.00  0.00    -0.488 OA
ATOM     18  C   UNL     1      -3.651   3.271 -26.697  0.00  0.00    +0.277 C 
ENDBRANCH   7  17
TORSDOF 2
ENDMDL
MODEL 7
REMARK VINA RESULT:    -7.660      1.319      5.147
REMARK INTER + INTRA:          -8.121
REMARK INTER:                  -8.579
REMARK INTRA:                   0.458
REMARK UNBOUND:                 0.435
REMARK  Name = ZINC000000314951
REMARK  4 active torsions:
REMARK  status: ('A' for Active; 'I' for Inactive)
REMARK    1  A    between atoms: C_1  and  O_2
REMARK    2  A    between atoms: O_2  and  C_3
REMARK    3  A    between atoms: C_9  and  O_10
REMARK    4  A    between atoms: O_10  and  C_11
REMARK                            x       y       z     vdW  Elec       q    Type
REMARK                         _______ _______ _______ _____ _____    ______ ____
ROOT
ATOM      1  C   UNL     1      -2.854   3.800 -24.800  0.00  0.00    +0.142 A 
ATOM      2  C   UNL     1      -3.907   3.713 -24.044  0.00  0.00    +0.066 A 
ATOM      3  C   UNL     1      -5.168   3.925 -24.281  0.00  0.00    +0.053 A 
ATOM      4  C   UNL     1      -5.827   3.698 -23.184  0.00  0.00    +0.196 A 
ATOM      5  O   UNL     1      -4.974   3.345 -22.268  0.00  0.00    -0.459 OA
ATOM      6  C   UNL     1      -3.787   3.355 -22.800  0.00  0.00    +0.183 A 
ATOM      7  C   UNL     1      -2.614   3.083 -22.312  0.00  0.00    +0.206 A 
ATOM      8  C   UNL     1      -1.560   3.170 -23.068  0.00  0.00    +0.188 A 
ATOM      9  O   UNL     1      -0.385   2.899 -22.581  0.00  0.00    -0.418 OA
ATOM     10  C   UNL     1       0.668   2.986 -23.337  0.00  0.00    +0.337 A 
ATOM     11  C   UNL     1       0.548   3.344 -24.581  0.00  0.00    +0.093 A 
ATOM     12  C   UNL     1      -0.625   3.616 -25.068  0.00  0.00    +0.022 A 
ATOM     13  O   UNL     1       1.842   2.715 -22.849  0.00  0.00    -0.245 OA
ATOM     14  C   UNL     1      -1.680   3.529 -24.312  0.00  0.00    +0.064 A 
ENDROOT
BRANCH   1  16
ATOM     15  C   UNL     1      -3.336   3.288 -26.939  0.00  0.00    +0.277 C 
ATOM     16  O   UNL     1      -2.974   4.158 -26.044  0.00  0.00    -0.494 OA
ENDBRANCH   1  16
BRANCH   7  17
ATOM     17  O   UNL     1      -2.494   2.725 -21.068  0.00  0.00    -0.488 OA
ATOM     18  C   UNL     1      -2.825   3.550 -20.120  0.00  0.00    +0.277 C 
ENDBRANCH   7  17
TORSDOF 2
ENDMDL
MODEL 8
REMARK VINA RESULT:    -7.263      2.824      5.374
REMARK INTER + INTRA:          -7.677
REMARK INTER:                  -8.078
REMARK INTRA:                   0.401
REMARK UNBOUND:                 0.435
REMARK  Name = ZINC000000314951
REMARK  4 active torsions:
REMARK  status: ('A' for Active; 'I' for Inactive)
REMARK    1  A    between atoms: C_1  and  O_2
REMARK    2  A    between atoms: O_2  and  C_3
REMARK    3  A    between atoms: C_9  and  O_10
REMARK    4  A    between atoms: O_10  and  C_11
REMARK                            x       y       z     vdW  Elec       q    Type
REMARK                         _______ _______ _______ _____ _____    ______ ____
ROOT
ATOM      1  C   UNL     1       3.182   2.874 -23.357  0.00  0.00    +0.142 A 
ATOM      2  C   UNL     1       3.309   1.992 -22.411  0.00  0.00    +0.066 A 
ATOM      3  C   UNL     1       4.339   1.599 -21.720  0.00  0.00    +0.053 A 
ATOM      4  C   UNL     1       3.939   0.685 -20.887  0.00  0.00    +0.196 A 
ATOM      5  O   UNL     1       2.661   0.512 -21.063  0.00  0.00    -0.459 OA
ATOM      6  C   UNL     1       2.273   1.320 -22.004  0.00  0.00    +0.183 A 
ATOM      7  C   UNL     1       1.110   1.531 -22.544  0.00  0.00    +0.206 A 
ATOM      8  C   UNL     1       0.983   2.413 -23.490  0.00  0.00    +0.188 A 
ATOM      9  O   UNL     1      -0.181   2.624 -24.030  0.00  0.00    -0.418 OA
ATOM     10  C   UNL     1      -0.309   3.506 -24.976  0.00  0.00    +0.337 A 
ATOM     11  C   UNL     1       0.728   4.178 -25.383  0.00  0.00    +0.093 A 
ATOM     12  C   UNL     1       1.891   3.967 -24.843  0.00  0.00    +0.022 A 
ATOM     13  O   UNL     1      -1.472   3.717 -25.516  0.00  0.00    -0.245 OA
ATOM     14  C   UNL     1       2.019   3.085 -23.896  0.00  0.00    +0.064 A 
ENDROOT
BRANCH   1  16
ATOM     15  C   UNL     1       4.655   4.552 -23.067  0.00  0.00    +0.277 C 
ATOM     16  O   UNL     1       4.219   3.545 -23.763  0.00  0.00    -0.494 OA
ENDBRANCH   1  16
BRANCH   7  17
ATOM     17  O   UNL     1       0.073   0.859 -22.138  0.00  0.00    -0.488 OA
ATOM     18  C   UNL     1      -0.704   1.355 -21.222  0.00  0.00    +0.277 C 
ENDBRANCH   7  17
TORSDOF 2
ENDMDL
MODEL 9
REMARK VINA RESULT:    -7.124      1.304      4.250
REMARK INTER + INTRA:          -7.522
REMARK INTER:                  -7.957
REMARK INTRA:                   0.435
REMARK UNBOUND:                 0.435
REMARK  Name = ZINC000000314951
REMARK  4 active torsions:
REMARK  status: ('A' for Active; 'I' for Inactive)
REMARK    1  A    between atoms: C_1  and  O_2
REMARK    2  A    between atoms: O_2  and  C_3
REMARK    3  A    between atoms: C_9  and  O_10
REMARK    4  A    between atoms: O_10  and  C_11
REMARK                            x       y       z     vdW  Elec       q    Type
REMARK                         _______ _______ _______ _____ _____    ______ ____
ROOT
ATOM      1  C   UNL     1      -4.161   3.536 -22.820  0.00  0.00    +0.142 A 
ATOM      2  C   UNL     1      -3.216   3.287 -21.963  0.00  0.00    +0.066 A 
ATOM      3  C   UNL     1      -3.205   3.263 -20.663  0.00  0.00    +0.053 A 
ATOM      4  C   UNL     1      -2.002   2.958 -20.278  0.00  0.00    +0.196 A 
ATOM      5  O   UNL     1      -1.269   2.793 -21.339  0.00  0.00    -0.459 OA
ATOM      6  C   UNL     1      -2.020   2.996 -22.381  0.00  0.00    +0.183 A 
ATOM      7  C   UNL     1      -1.769   2.954 -23.655  0.00  0.00    +0.206 A 
ATOM      8  C   UNL     1      -2.714   3.204 -24.512  0.00  0.00    +0.188 A 
ATOM      9  O   UNL     1      -2.463   3.162 -25.788  0.00  0.00    -0.418 OA
ATOM     10  C   UNL     1      -3.408   3.411 -26.644  0.00  0.00    +0.337 A 
ATOM     11  C   UNL     1      -4.604   3.702 -26.227  0.00  0.00    +0.093 A 
ATOM     12  C   UNL     1      -4.855   3.744 -24.952  0.00  0.00    +0.022 A 
ATOM     13  O   UNL     1      -3.157   3.369 -27.919  0.00  0.00    -0.245 OA
ATOM     14  C   UNL     1      -3.910   3.494 -24.095  0.00  0.00    +0.064 A 
ENDROOT
BRANCH   1  16
ATOM     15  C   UNL     1      -6.118   2.896 -21.908  0.00  0.00    +0.277 C 
ATOM     16  O   UNL     1      -5.358   3.827 -22.403  0.00  0.00    -0.494 OA
ENDBRANCH   1  16
BRANCH   7  17
ATOM     17  O   UNL     1      -0.573   2.664 -24.073  0.00  0.00    -0.488 OA
ATOM     18  C   UNL     1       0.262   3.615 -24.367  0.00  0.00    +0.277 C 
ENDBRANCH   7  17
TORSDOF 2
ENDMDL
