MODEL 1
REMARK VINA RESULT:   -11.015      0.000      0.000
REMARK INTER + INTRA:         -11.781
REMARK INTER:                 -11.660
REMARK INTRA:                  -0.121
REMARK UNBOUND:                -0.122
REMARK  Name = COc1cc(Br)c2c3c1O[C@H]1C4(CC[C@H]5[C@H](C2)N(C)CC[C@@]351)OCCO4      ZINC000100392463
REMARK  3 active torsions:
REMARK  status: ('A' for Active; 'I' for Inactive)
REMARK    1  A    between atoms: C_1  and  O_2
REMARK    2  A    between atoms: O_2  and  C_3
REMARK    3  A    between atoms: N_18  and  C_19
REMARK                            x       y       z     vdW  Elec       q    Type
REMARK                         _______ _______ _______ _____ _____    ______ ____
ROOT
ATOM      1  C   UNL     1       1.132   1.845 -21.945  0.00  0.00    +0.163 A 
ATOM      2  C   UNL     1       1.911   2.036 -22.932  0.00  0.00    +0.065 A 
ATOM      3  C   UNL     1       1.466   2.475 -24.021  0.00  0.00    +0.025 A 
ATOM      4  C   UNL     1       0.240   2.729 -24.138  0.00  0.00    -0.021 A 
ATOM      5  C   UNL     1      -0.556   2.547 -23.171  0.00  0.00    +0.013 A 
ATOM      6  C   UNL     1      -1.781   2.800 -23.289  0.00  0.00    +0.054 C 
ATOM      7  C   UNL     1      -3.191   3.053 -23.310  0.00  0.00    +0.067 C 
ATOM      8  C   UNL     1      -3.723   3.550 -24.528  0.00  0.00    +0.132 C 
ATOM      9  N   UNL     1      -2.822   3.750 -25.604  0.00  0.00    +0.236 N 
ATOM     10  H   UNL     1      -3.142   4.105 -26.505  0.00  0.00    +0.203 HD
ATOM     11  C   UNL     1      -3.212   4.188 -26.716  0.00  0.00    +0.190 C 
ATOM     12  C   UNL     1      -1.447   3.430 -25.365  0.00  0.00    +0.073 C 
ATOM     13  C   UNL     1      -2.228   3.241 -24.382  0.00  0.00    +0.053 C 
ATOM     14  C   UNL     1      -3.468   3.497 -24.500  0.00  0.00    +0.015 C 
ATOM     15  C   UNL     1      -4.248   3.311 -23.531  0.00  0.00    +0.069 C 
ATOM     16  C   UNL     1      -3.802   2.867 -22.427  0.00  0.00    +0.208 C 
ATOM     17  O   UNL     1      -3.470   2.433 -21.295  0.00  0.00    -0.343 OA
ATOM     18  C   UNL     1      -4.504   2.376 -20.581  0.00  0.00    +0.191 C 
ATOM     19  C   UNL     1      -5.474   2.776 -21.273  0.00  0.00    +0.191 C 
ATOM     20  O   UNL     1      -5.042   3.079 -22.413  0.00  0.00    -0.343 OA
ATOM     21  C   UNL     1      -2.578   2.613 -22.308  0.00  0.00    +0.244 C 
ATOM     22  O   UNL     1      -1.461   2.117 -21.401  0.00  0.00    -0.479 OA
ATOM     23  C   UNL     1      -0.221   3.177 -25.247  0.00  0.00    +0.091 C 
ATOM     24 BR   UNL     1       2.243   2.661 -24.990  0.00  0.00    -0.050 Br
ATOM     25  C   UNL     1      -0.109   2.102 -22.068  0.00  0.00    +0.167 A 
ENDROOT
BRANCH   1  27
ATOM     26  C   UNL     1       2.825   1.379 -20.656  0.00  0.00    +0.277 C 
ATOM     27  O   UNL     1       1.584   1.405 -20.858  0.00  0.00    -0.491 OA
ENDBRANCH   1  27
TORSDOF 1
ENDMDL
MODEL 2
REMARK VINA RESULT:   -10.413      2.091      3.486
REMARK INTER + INTRA:         -11.144
REMARK INTER:                 -11.023
REMARK INTRA:                  -0.121
REMARK UNBOUND:                -0.122
REMARK  Name = COc1cc(Br)c2c3c1O[C@H]1C4(CC[C@H]5[C@H](C2)N(C)CC[C@@]351)OCCO4      ZINC000100392463
REMARK  3 active torsions:
REMARK  status: ('A' for Active; 'I' for Inactive)
REMARK    1  A    between atoms: C_1  and  O_2
REMARK    2  A    between atoms: O_2  and  C_3
REMARK    3  A    between atoms: N_18  and  C_19
REMARK                            x       y       z     vdW  Elec       q    Type
REMARK                         _______ _______ _______ _____ _____    ______ ____
ROOT
ATOM      1  C   UNL     1       1.772   2.179 -23.760  0.00  0.00    +0.163 A 
ATOM      2  C   UNL     1       2.084   1.863 -22.569  0.00  0.00    +0.065 A 
ATOM      3  C   UNL     1       1.210   1.827 -21.668  0.00  0.00    +0.025 A 
ATOM      4  C   UNL     1       0.015   2.107 -21.945  0.00  0.00    -0.021 A 
ATOM      5  C   UNL     1      -0.321   2.425 -23.123  0.00  0.00    +0.013 A 
ATOM      6  C   UNL     1      -1.514   2.704 -23.399  0.00  0.00    +0.054 C 
ATOM      7  C   UNL     1      -2.839   3.040 -23.827  0.00  0.00    +0.067 C 
ATOM      8  C   UNL     1      -3.849   3.008 -22.829  0.00  0.00    +0.132 C 
ATOM      9  N   UNL     1      -3.461   2.651 -21.513  0.00  0.00    +0.236 N 
ATOM     10  H   UNL     1      -4.139   2.610 -20.753  0.00  0.00    +0.203 HD
ATOM     11  C   UNL     1      -4.294   2.599 -20.573  0.00  0.00    +0.190 C 
ATOM     12  C   UNL     1      -2.076   2.351 -21.307  0.00  0.00    +0.073 C 
ATOM     13  C   UNL     1      -2.391   2.668 -22.495  0.00  0.00    +0.053 C 
ATOM     14  C   UNL     1      -3.599   2.951 -22.775  0.00  0.00    +0.015 C 
ATOM     15  C   UNL     1      -3.919   3.265 -23.950  0.00  0.00    +0.069 C 
ATOM     16  C   UNL     1      -3.038   3.302 -24.865  0.00  0.00    +0.208 C 
ATOM     17  O   UNL     1      -2.252   3.371 -25.843  0.00  0.00    -0.343 OA
ATOM     18  C   UNL     1      -2.916   3.713 -26.855  0.00  0.00    +0.191 C 
ATOM     19  C   UNL     1      -4.114   3.856 -26.500  0.00  0.00    +0.191 C 
ATOM     20  O   UNL     1      -4.190   3.602 -25.272  0.00  0.00    -0.343 OA
ATOM     21  C   UNL     1      -1.845   3.024 -24.591  0.00  0.00    +0.244 C 
ATOM     22  O   UNL     1      -0.421   2.874 -25.104  0.00  0.00    -0.479 OA
ATOM     23  C   UNL     1      -0.882   2.072 -21.030  0.00  0.00    +0.091 C 
ATOM     24 BR   UNL     1       1.527   1.513 -20.494  0.00  0.00    -0.050 Br
ATOM     25  C   UNL     1       0.562   2.461 -24.037  0.00  0.00    +0.167 A 
ENDROOT
BRANCH   1  27
ATOM     26  C   UNL     1       3.842   1.913 -24.384  0.00  0.00    +0.277 C 
ATOM     27  O   UNL     1       2.652   2.213 -24.657  0.00  0.00    -0.491 OA
ENDBRANCH   1  27
TORSDOF 1
ENDMDL
MODEL 3
REMARK VINA RESULT:    -9.926      1.797      4.894
REMARK INTER + INTRA:         -10.629
REMARK INTER:                 -10.508
REMARK INTRA:                  -0.121
REMARK UNBOUND:                -0.122
REMARK  Name = COc1cc(Br)c2c3c1O[C@H]1C4(CC[C@H]5[C@H](C2)N(C)CC[C@@]351)OCCO4      ZINC000100392463
REMARK  3 active torsions:
REMARK  status: ('A' for Active; 'I' for Inactive)
REMARK    1  A    between atoms: C_1  and  O_2
REMARK    2  A    between atoms: O_2  and  C_3
REMARK    3  A    between atoms: N_18  and  C_19
REMARK                            x       y       z     vdW  Elec       q    Type
REMARK                         _______ _______ _______ _____ _____    ______ ____
ROOT
ATOM      1  C   UNL     1      -4.323   2.929 -22.241  0.00  0.00    +0.163 A 
ATOM      2  C   UNL     1      -4.828   3.481 -23.269  0.00  0.00    +0.065 A 
ATOM      3  C   UNL     1      -4.096   3.849 -24.221  0.00  0.00    +0.025 A 
ATOM      4  C   UNL     1      -2.852   3.669 -24.157  0.00  0.00    -0.021 A 
ATOM      5  C   UNL     1      -2.326   3.122 -23.144  0.00  0.00    +0.013 A 
ATOM      6  C   UNL     1      -1.084   2.944 -23.082  0.00  0.00    +0.054 C 
ATOM      7  C   UNL     1       0.315   2.691 -22.903  0.00  0.00    +0.067 C 
ATOM      8  C   UNL     1       1.168   3.096 -23.962  0.00  0.00    +0.132 C 
ATOM      9  N   UNL     1       0.567   3.707 -25.091  0.00  0.00    +0.236 N 
ATOM     10  H   UNL     1       1.126   4.020 -25.885  0.00  0.00    +0.203 HD
ATOM     11  C   UNL     1       1.252   4.094 -26.072  0.00  0.00    +0.190 C 
ATOM     12  C   UNL     1      -0.856   3.863 -25.062  0.00  0.00    +0.073 C 
ATOM     13  C   UNL     1      -0.349   3.313 -24.036  0.00  0.00    +0.053 C 
ATOM     14  C   UNL     1       0.909   3.131 -23.972  0.00  0.00    +0.015 C 
ATOM     15  C   UNL     1       1.418   2.586 -22.960  0.00  0.00    +0.069 C 
ATOM     16  C   UNL     1       0.681   2.213 -21.994  0.00  0.00    +0.208 C 
ATOM     17  O   UNL     1       0.049   1.807 -20.987  0.00  0.00    -0.343 OA
ATOM     18  C   UNL     1       0.878   1.320 -20.176  0.00  0.00    +0.191 C 
ATOM     19  C   UNL     1       2.023   1.426 -20.684  0.00  0.00    +0.191 C 
ATOM     20  O   UNL     1       1.902   1.977 -21.807  0.00  0.00    -0.343 OA
ATOM     21  C   UNL     1      -0.561   2.391 -22.056  0.00  0.00    +0.244 C 
ATOM     22  O   UNL     1      -1.907   2.223 -21.369  0.00  0.00    -0.479 OA
ATOM     23  C   UNL     1      -2.098   4.042 -25.125  0.00  0.00    +0.091 C 
ATOM     24 BR   UNL     1      -4.602   4.393 -25.232  0.00  0.00    -0.050 Br
ATOM     25  C   UNL     1      -3.065   2.750 -22.180  0.00  0.00    +0.167 A 
ENDROOT
BRANCH   1  27
ATOM     26  C   UNL     1      -6.311   2.534 -21.440  0.00  0.00    +0.277 C 
ATOM     27  O   UNL     1      -5.062   2.564 -21.292  0.00  0.00    -0.491 OA
ENDBRANCH   1  27
TORSDOF 1
ENDMDL
MODEL 4
REMARK VINA RESULT:    -8.887      2.651      5.927
REMARK INTER + INTRA:          -9.528
REMARK INTER:                  -9.407
REMARK INTRA:                  -0.121
REMARK UNBOUND:                -0.122
REMARK  Name = COc1cc(Br)c2c3c1O[C@H]1C4(CC[C@H]5[C@H](C2)N(C)CC[C@@]351)OCCO4      ZINC000100392463
REMARK  3 active torsions:
REMARK  status: ('A' for Active; 'I' for Inactive)
REMARK    1  A    between atoms: C_1  and  O_2
REMARK    2  A    between atoms: O_2  and  C_3
REMARK    3  A    between atoms: N_18  and  C_19
REMARK                            x       y       z     vdW  Elec       q    Type
REMARK                         _______ _______ _______ _____ _____    ______ ____
ROOT
ATOM      1  C   UNL     1      -4.221   3.691 -24.045  0.00  0.00    +0.163 A 
ATOM      2  C   UNL     1      -4.862   3.436 -22.978  0.00  0.00    +0.065 A 
ATOM      3  C   UNL     1      -4.270   2.967 -21.974  0.00  0.00    +0.025 A 
ATOM      4  C   UNL     1      -3.032   2.748 -22.025  0.00  0.00    -0.021 A 
ATOM      5  C   UNL     1      -2.372   2.994 -23.076  0.00  0.00    +0.013 A 
ATOM      6  C   UNL     1      -1.136   2.775 -23.126  0.00  0.00    +0.054 C 
ATOM      7  C   UNL     1       0.271   2.565 -23.296  0.00  0.00    +0.067 C 
ATOM      8  C   UNL     1       0.968   2.036 -22.178  0.00  0.00    +0.132 C 
ATOM      9  N   UNL     1       0.217   1.764 -21.006  0.00  0.00    +0.236 N 
ATOM     10  H   UNL     1       0.659   1.383 -20.170  0.00  0.00    +0.203 HD
ATOM     11  C   UNL     1       0.759   1.294 -19.973  0.00  0.00    +0.190 C 
ATOM     12  C   UNL     1      -1.185   2.050 -21.055  0.00  0.00    +0.073 C 
ATOM     13  C   UNL     1      -0.542   2.304 -22.120  0.00  0.00    +0.053 C 
ATOM     14  C   UNL     1       0.710   2.083 -22.171  0.00  0.00    +0.015 C 
ATOM     15  C   UNL     1       1.354   2.332 -23.222  0.00  0.00    +0.069 C 
ATOM     16  C   UNL     1       0.759   2.807 -24.240  0.00  0.00    +0.208 C 
ATOM     17  O   UNL     1       0.274   3.275 -25.300  0.00  0.00    -0.343 OA
ATOM     18  C   UNL     1       1.205   3.393 -26.137  0.00  0.00    +0.191 C 
ATOM     19  C   UNL     1       2.267   2.997 -25.592  0.00  0.00    +0.191 C 
ATOM     20  O   UNL     1       1.992   2.634 -24.420  0.00  0.00    -0.343 OA
ATOM     21  C   UNL     1      -0.477   3.026 -24.191  0.00  0.00    +0.244 C 
ATOM     22  O   UNL     1      -1.712   3.523 -24.926  0.00  0.00    -0.479 OA
ATOM     23  C   UNL     1      -2.422   2.269 -21.004  0.00  0.00    +0.091 C 
ATOM     24 BR   UNL     1      -4.911   2.717 -20.924  0.00  0.00    -0.050 Br
ATOM     25  C   UNL     1      -2.968   3.468 -24.093  0.00  0.00    +0.167 A 
ENDROOT
BRANCH   1  27
ATOM     26  C   UNL     1      -4.906   3.485 -26.103  0.00  0.00    +0.277 C 
ATOM     27  O   UNL     1      -4.820   4.161 -25.046  0.00  0.00    -0.491 OA
ENDBRANCH   1  27
TORSDOF 1
ENDMDL
MODEL 5
REMARK VINA RESULT:    -8.822      3.966      5.601
REMARK INTER + INTRA:          -9.461
REMARK INTER:                  -9.335
REMARK INTRA:                  -0.126
REMARK UNBOUND:                -0.122
REMARK  Name = COc1cc(Br)c2c3c1O[C@H]1C4(CC[C@H]5[C@H](C2)N(C)CC[C@@]351)OCCO4      ZINC000100392463
REMARK  3 active torsions:
REMARK  status: ('A' for Active; 'I' for Inactive)
REMARK    1  A    between atoms: C_1  and  O_2
REMARK    2  A    between atoms: O_2  and  C_3
REMARK    3  A    between atoms: N_18  and  C_19
REMARK                            x       y       z     vdW  Elec       q    Type
REMARK                         _______ _______ _______ _____ _____    ______ ____
ROOT
ATOM      1  C   UNL     1       4.691   6.657 -22.228  0.00  0.00    +0.163 A 
ATOM      2  C   UNL     1       5.846   6.134 -22.320  0.00  0.00    +0.065 A 
ATOM      3  C   UNL     1       5.986   4.970 -22.773  0.00  0.00    +0.025 A 
ATOM      4  C   UNL     1       4.976   4.317 -23.139  0.00  0.00    -0.021 A 
ATOM      5  C   UNL     1       3.815   4.815 -23.058  0.00  0.00    +0.013 A 
ATOM      6  C   UNL     1       2.807   4.162 -23.424  0.00  0.00    +0.054 C 
ATOM      7  C   UNL     1       1.590   3.511 -23.810  0.00  0.00    +0.067 C 
ATOM      8  C   UNL     1       1.717   2.195 -24.326  0.00  0.00    +0.132 C 
ATOM      9  N   UNL     1       3.022   1.647 -24.412  0.00  0.00    +0.236 N 
ATOM     10  H   UNL     1       3.180   0.706 -24.774  0.00  0.00    +0.203 HD
ATOM     11  C   UNL     1       3.221   0.488 -24.857  0.00  0.00    +0.190 C 
ATOM     12  C   UNL     1       4.102   2.475 -23.968  0.00  0.00    +0.073 C 
ATOM     13  C   UNL     1       2.947   2.995 -23.878  0.00  0.00    +0.053 C 
ATOM     14  C   UNL     1       1.926   2.334 -24.249  0.00  0.00    +0.015 C 
ATOM     15  C   UNL     1       0.778   2.841 -24.163  0.00  0.00    +0.069 C 
ATOM     16  C   UNL     1       0.631   4.018 -23.705  0.00  0.00    +0.208 C 
ATOM     17  O   UNL     1       0.372   5.168 -23.270  0.00  0.00    -0.343 OA
ATOM     18  C   UNL     1      -0.873   5.336 -23.330  0.00  0.00    +0.191 C 
ATOM     19  C   UNL     1      -1.382   4.289 -23.803  0.00  0.00    +0.191 C 
ATOM     20  O   UNL     1      -0.453   3.474 -24.035  0.00  0.00    -0.343 OA
ATOM     21  C   UNL     1       1.639   4.672 -23.339  0.00  0.00    +0.244 C 
ATOM     22  O   UNL     1       2.171   5.975 -22.761  0.00  0.00    -0.479 OA
ATOM     23  C   UNL     1       5.112   3.129 -23.602  0.00  0.00    +0.091 C 
ATOM     24 BR   UNL     1       7.131   4.462 -22.859  0.00  0.00    -0.050 Br
ATOM     25  C   UNL     1       3.670   5.992 -22.600  0.00  0.00    +0.167 A 
ENDROOT
BRANCH   1  27
ATOM     26  C   UNL     1       5.163   8.162 -20.726  0.00  0.00    +0.277 C 
ATOM     27  O   UNL     1       4.557   7.821 -21.774  0.00  0.00    -0.491 OA
ENDBRANCH   1  27
TORSDOF 1
ENDMDL
MODEL 6
REMARK VINA RESULT:    -8.459      2.577      5.532
REMARK INTER + INTRA:          -9.076
REMARK INTER:                  -8.955
REMARK INTRA:                  -0.121
REMARK UNBOUND:                -0.122
REMARK  Name = COc1cc(Br)c2c3c1O[C@H]1C4(CC[C@H]5[C@H](C2)N(C)CC[C@@]351)OCCO4      ZINC000100392463
REMARK  3 active torsions:
REMARK  status: ('A' for Active; 'I' for Inactive)
REMARK    1  A    between atoms: C_1  and  O_2
REMARK    2  A    between atoms: O_2  and  C_3
REMARK    3  A    between atoms: N_18  and  C_19
REMARK                            x       y       z     vdW  Elec       q    Type
REMARK                         _______ _______ _______ _____ _____    ______ ____
ROOT
ATOM      1  C   UNL     1      -3.129   3.469 -26.380  0.00  0.00    +0.163 A 
ATOM      2  C   UNL     1      -4.315   3.855 -26.135  0.00  0.00    +0.065 A 
ATOM      3  C   UNL     1      -4.730   3.935 -24.952  0.00  0.00    +0.025 A 
ATOM      4  C   UNL     1      -3.965   3.632 -24.001  0.00  0.00    -0.021 A 
ATOM      5  C   UNL     1      -2.780   3.245 -24.218  0.00  0.00    +0.013 A 
ATOM      6  C   UNL     1      -2.017   2.942 -23.267  0.00  0.00    +0.054 C 
ATOM      7  C   UNL     1      -1.064   2.572 -22.264  0.00  0.00    +0.067 C 
ATOM      8  C   UNL     1      -1.504   2.652 -20.917  0.00  0.00    +0.132 C 
ATOM      9  N   UNL     1      -2.833   3.087 -20.686  0.00  0.00    +0.236 N 
ATOM     10  H   UNL     1      -3.209   3.166 -19.741  0.00  0.00    +0.203 HD
ATOM     11  C   UNL     1      -3.300   3.186 -19.523  0.00  0.00    +0.190 C 
ATOM     12  C   UNL     1      -3.618   3.408 -21.839  0.00  0.00    +0.073 C 
ATOM     13  C   UNL     1      -2.433   3.022 -22.080  0.00  0.00    +0.053 C 
ATOM     14  C   UNL     1      -1.660   2.715 -21.118  0.00  0.00    +0.015 C 
ATOM     15  C   UNL     1      -0.485   2.332 -21.348  0.00  0.00    +0.069 C 
ATOM     16  C   UNL     1      -0.061   2.249 -22.543  0.00  0.00    +0.208 C 
ATOM     17  O   UNL     1       0.460   2.131 -23.681  0.00  0.00    -0.343 OA
ATOM     18  C   UNL     1       1.641   1.727 -23.530  0.00  0.00    +0.191 C 
ATOM     19  C   UNL     1       1.850   1.596 -22.297  0.00  0.00    +0.191 C 
ATOM     20  O   UNL     1       0.799   1.918 -21.687  0.00  0.00    -0.343 OA
ATOM     21  C   UNL     1      -0.822   2.552 -23.495  0.00  0.00    +0.244 C 
ATOM     22  O   UNL     1      -0.989   2.683 -25.001  0.00  0.00    -0.479 OA
ATOM     23  C   UNL     1      -4.382   3.711 -22.791  0.00  0.00    +0.091 C 
ATOM     24 BR   UNL     1      -5.903   4.317 -24.720  0.00  0.00    -0.050 Br
ATOM     25  C   UNL     1      -2.358   3.163 -25.414  0.00  0.00    +0.167 A 
ENDROOT
BRANCH   1  27
ATOM     26  C   UNL     1      -3.543   3.398 -28.517  0.00  0.00    +0.277 C 
ATOM     27  O   UNL     1      -2.720   3.391 -27.566  0.00  0.00    -0.491 OA
ENDBRANCH   1  27
TORSDOF 1
ENDMDL
MODEL 7
REMARK VINA RESULT:    -8.426      5.176      8.183
REMARK INTER + INTRA:          -9.041
REMARK INTER:                  -8.919
REMARK INTRA:                  -0.122
REMARK UNBOUND:                -0.122
REMARK  Name = COc1cc(Br)c2c3c1O[C@H]1C4(CC[C@H]5[C@H](C2)N(C)CC[C@@]351)OCCO4      ZINC000100392463
REMARK  3 active torsions:
REMARK  status: ('A' for Active; 'I' for Inactive)
REMARK    1  A    between atoms: C_1  and  O_2
REMARK    2  A    between atoms: O_2  and  C_3
REMARK    3  A    between atoms: N_18  and  C_19
REMARK                            x       y       z     vdW  Elec       q    Type
REMARK                         _______ _______ _______ _____ _____    ______ ____
ROOT
ATOM      1  C   UNL     1       1.263   4.664 -23.450  0.00  0.00    +0.163 A 
ATOM      2  C   UNL     1       1.255   3.515 -23.995  0.00  0.00    +0.065 A 
ATOM      3  C   UNL     1       2.327   2.886 -24.175  0.00  0.00    +0.025 A 
ATOM      4  C   UNL     1       3.419   3.396 -23.813  0.00  0.00    -0.021 A 
ATOM      5  C   UNL     1       3.453   4.538 -23.269  0.00  0.00    +0.013 A 
ATOM      6  C   UNL     1       4.544   5.046 -22.908  0.00  0.00    +0.054 C 
ATOM      7  C   UNL     1       5.725   5.721 -22.458  0.00  0.00    +0.067 C 
ATOM      8  C   UNL     1       6.953   5.033 -22.648  0.00  0.00    +0.132 C 
ATOM      9  N   UNL     1       6.901   3.755 -23.259  0.00  0.00    +0.236 N 
ATOM     10  H   UNL     1       7.748   3.211 -23.423  0.00  0.00    +0.203 HD
ATOM     11  C   UNL     1       7.943   3.081 -23.463  0.00  0.00    +0.190 C 
ATOM     12  C   UNL     1       5.608   3.268 -23.632  0.00  0.00    +0.073 C 
ATOM     13  C   UNL     1       5.620   4.415 -23.088  0.00  0.00    +0.053 C 
ATOM     14  C   UNL     1       6.724   4.930 -22.722  0.00  0.00    +0.015 C 
ATOM     15  C   UNL     1       6.744   6.066 -22.183  0.00  0.00    +0.069 C 
ATOM     16  C   UNL     1       5.661   6.707 -21.999  0.00  0.00    +0.208 C 
ATOM     17  O   UNL     1       4.656   7.424 -21.770  0.00  0.00    -0.343 OA
ATOM     18  C   UNL     1       5.050   8.486 -21.223  0.00  0.00    +0.191 C 
ATOM     19  C   UNL     1       6.302   8.423 -21.115  0.00  0.00    +0.191 C 
ATOM     20  O   UNL     1       6.679   7.324 -21.594  0.00  0.00    -0.343 OA
ATOM     21  C   UNL     1       4.570   6.199 -22.359  0.00  0.00    +0.244 C 
ATOM     22  O   UNL     1       3.060   6.358 -22.450  0.00  0.00    -0.479 OA
ATOM     23  C   UNL     1       4.516   2.759 -23.994  0.00  0.00    +0.091 C 
ATOM     24 BR   UNL     1       2.309   1.752 -24.713  0.00  0.00    -0.050 Br
ATOM     25  C   UNL     1       2.370   5.177 -23.085  0.00  0.00    +0.167 A 
ENDROOT
BRANCH   1  27
ATOM     26  C   UNL     1      -0.896   4.659 -23.162  0.00  0.00    +0.277 C 
ATOM     27  O   UNL     1       0.187   5.289 -23.273  0.00  0.00    -0.491 OA
ENDBRANCH   1  27
TORSDOF 1
ENDMDL
