MODEL 1
REMARK VINA RESULT:    -9.659      0.000      0.000
REMARK INTER + INTRA:          -9.659
REMARK INTER:                  -9.659
REMARK INTRA:                   0.000
REMARK UNBOUND:                 0.000
REMARK  Name = ZINC000000338304
REMARK  2 active torsions:
REMARK  status: ('A' for Active; 'I' for Inactive)
REMARK    1  A    between atoms: C_1  and  C_2
REMARK    2  A    between atoms: C_2  and  C_3
REMARK                            x       y       z     vdW  Elec       q    Type
REMARK                         _______ _______ _______ _____ _____    ______ ____
ROOT
ATOM      1  C   UNL     1      -5.826   3.394 -22.239  0.00  0.00    +0.060 C 
ATOM      2  C   UNL     1      -4.611   3.215 -22.667  0.00  0.00    +0.124 C 
ATOM      3  C   UNL     1      -4.475   2.828 -21.433  0.00  0.00    +0.020 C 
ATOM      4  C   UNL     1      -3.319   2.419 -21.004  0.00  0.00    +0.011 C 
ATOM      5  C   UNL     1      -2.297   2.395 -21.809  0.00  0.00    +0.017 A 
ATOM      6  C   UNL     1      -1.141   1.986 -21.380  0.00  0.00    +0.023 A 
ATOM      7  C   UNL     1      -0.121   1.963 -22.185  0.00  0.00    +0.018 A 
ATOM      8  C   UNL     1       1.037   1.552 -21.755  0.00  0.00    +0.018 A 
ATOM      9  C   UNL     1       2.057   1.529 -22.559  0.00  0.00    +0.092 A 
ATOM     10  C   UNL     1       1.921   1.916 -23.793  0.00  0.00    +0.337 A 
ATOM     11  O   UNL     1       0.765   2.325 -24.222  0.00  0.00    -0.422 OA
ATOM     12  O   UNL     1       2.942   1.892 -24.598  0.00  0.00    -0.245 OA
ATOM     13  C   UNL     1      -0.256   2.349 -23.418  0.00  0.00    +0.143 A 
ATOM     14  C   UNL     1      -1.413   2.759 -23.848  0.00  0.00    +0.093 A 
ATOM     15  C   UNL     1      -2.433   2.782 -23.043  0.00  0.00    +0.132 A 
ATOM     16  C   UNL     1      -5.169   3.663 -23.752  0.00  0.00    +0.060 C 
ATOM     17  O   UNL     1      -3.591   3.192 -23.472  0.00  0.00    -0.482 OA
ENDROOT
TORSDOF 0
ENDMDL
MODEL 2
REMARK VINA RESULT:    -9.436      1.529      2.256
REMARK INTER + INTRA:          -9.436
REMARK INTER:                  -9.436
REMARK INTRA:                   0.000
REMARK UNBOUND:                 0.000
REMARK  Name = ZINC000000338304
REMARK  2 active torsions:
REMARK  status: ('A' for Active; 'I' for Inactive)
REMARK    1  A    between atoms: C_1  and  C_2
REMARK    2  A    between atoms: C_2  and  C_3
REMARK                            x       y       z     vdW  Elec       q    Type
REMARK                         _______ _______ _______ _____ _____    ______ ____
ROOT
ATOM      1  C   UNL     1      -5.557   3.740 -23.217  0.00  0.00    +0.060 C 
ATOM      2  C   UNL     1      -4.428   3.293 -22.753  0.00  0.00    +0.124 C 
ATOM      3  C   UNL     1      -4.036   3.738 -23.910  0.00  0.00    +0.020 C 
ATOM      4  C   UNL     1      -2.788   3.635 -24.256  0.00  0.00    +0.011 C 
ATOM      5  C   UNL     1      -1.930   3.087 -23.446  0.00  0.00    +0.017 A 
ATOM      6  C   UNL     1      -0.682   2.984 -23.793  0.00  0.00    +0.023 A 
ATOM      7  C   UNL     1       0.174   2.436 -22.983  0.00  0.00    +0.018 A 
ATOM      8  C   UNL     1       1.424   2.333 -23.331  0.00  0.00    +0.018 A 
ATOM      9  C   UNL     1       2.280   1.785 -22.521  0.00  0.00    +0.092 A 
ATOM     10  C   UNL     1       1.888   1.340 -21.364  0.00  0.00    +0.337 A 
ATOM     11  O   UNL     1       0.639   1.443 -21.017  0.00  0.00    -0.422 OA
ATOM     12  O   UNL     1       2.744   0.793 -20.554  0.00  0.00    -0.245 OA
ATOM     13  C   UNL     1      -0.218   1.991 -21.827  0.00  0.00    +0.143 A 
ATOM     14  C   UNL     1      -1.466   2.094 -21.479  0.00  0.00    +0.093 A 
ATOM     15  C   UNL     1      -2.322   2.642 -22.289  0.00  0.00    +0.132 A 
ATOM     16  C   UNL     1      -5.212   3.003 -21.758  0.00  0.00    +0.060 C 
ATOM     17  O   UNL     1      -3.572   2.745 -21.943  0.00  0.00    -0.482 OA
ENDROOT
TORSDOF 0
ENDMDL
MODEL 3
REMARK VINA RESULT:    -9.363      0.732      5.469
REMARK INTER + INTRA:          -9.363
REMARK INTER:                  -9.363
REMARK INTRA:                   0.000
REMARK UNBOUND:                 0.000
REMARK  Name = ZINC000000338304
REMARK  2 active torsions:
REMARK  status: ('A' for Active; 'I' for Inactive)
REMARK    1  A    between atoms: C_1  and  C_2
REMARK    2  A    between atoms: C_2  and  C_3
REMARK                            x       y       z     vdW  Elec       q    Type
REMARK                         _______ _______ _______ _____ _____    ______ ____
ROOT
ATOM      1  C   UNL     1       3.122   1.429 -23.277  0.00  0.00    +0.060 C 
ATOM      2  C   UNL     1       1.881   1.795 -23.412  0.00  0.00    +0.124 C 
ATOM      3  C   UNL     1       1.881   1.451 -22.158  0.00  0.00    +0.020 C 
ATOM      4  C   UNL     1       0.790   1.548 -21.458  0.00  0.00    +0.011 C 
ATOM      5  C   UNL     1      -0.301   1.989 -22.011  0.00  0.00    +0.017 A 
ATOM      6  C   UNL     1      -1.391   2.086 -21.311  0.00  0.00    +0.023 A 
ATOM      7  C   UNL     1      -2.481   2.527 -21.864  0.00  0.00    +0.018 A 
ATOM      8  C   UNL     1      -3.573   2.624 -21.163  0.00  0.00    +0.018 A 
ATOM      9  C   UNL     1      -4.663   3.066 -21.716  0.00  0.00    +0.092 A 
ATOM     10  C   UNL     1      -4.663   3.410 -22.970  0.00  0.00    +0.337 A 
ATOM     11  O   UNL     1      -3.572   3.313 -23.670  0.00  0.00    -0.422 OA
ATOM     12  O   UNL     1      -5.753   3.851 -23.523  0.00  0.00    -0.245 OA
ATOM     13  C   UNL     1      -2.481   2.871 -23.117  0.00  0.00    +0.143 A 
ATOM     14  C   UNL     1      -1.391   2.775 -23.818  0.00  0.00    +0.093 A 
ATOM     15  C   UNL     1      -0.300   2.333 -23.265  0.00  0.00    +0.132 A 
ATOM     16  C   UNL     1       2.313   2.012 -24.618  0.00  0.00    +0.060 C 
ATOM     17  O   UNL     1       0.791   2.236 -23.965  0.00  0.00    -0.482 OA
ENDROOT
TORSDOF 0
ENDMDL
MODEL 4
REMARK VINA RESULT:    -9.279      1.253      2.362
REMARK INTER + INTRA:          -9.279
REMARK INTER:                  -9.279
REMARK INTRA:                   0.000
REMARK UNBOUND:                 0.000
REMARK  Name = ZINC000000338304
REMARK  2 active torsions:
REMARK  status: ('A' for Active; 'I' for Inactive)
REMARK    1  A    between atoms: C_1  and  C_2
REMARK    2  A    between atoms: C_2  and  C_3
REMARK                            x       y       z     vdW  Elec       q    Type
REMARK                         _______ _______ _______ _____ _____    ______ ____
ROOT
ATOM      1  C   UNL     1      -6.001   3.178 -21.884  0.00  0.00    +0.060 C 
ATOM      2  C   UNL     1      -4.748   2.949 -22.143  0.00  0.00    +0.124 C 
ATOM      3  C   UNL     1      -5.061   3.680 -23.171  0.00  0.00    +0.020 C 
ATOM      4  C   UNL     1      -4.164   3.955 -24.070  0.00  0.00    +0.011 C 
ATOM      5  C   UNL     1      -2.952   3.500 -23.940  0.00  0.00    +0.017 A 
ATOM      6  C   UNL     1      -2.055   3.776 -24.839  0.00  0.00    +0.023 A 
ATOM      7  C   UNL     1      -0.844   3.321 -24.709  0.00  0.00    +0.018 A 
ATOM      8  C   UNL     1       0.054   3.597 -25.609  0.00  0.00    +0.018 A 
ATOM      9  C   UNL     1       1.265   3.142 -25.478  0.00  0.00    +0.092 A 
ATOM     10  C   UNL     1       1.578   2.412 -24.450  0.00  0.00    +0.337 A 
ATOM     11  O   UNL     1       0.680   2.136 -23.551  0.00  0.00    -0.422 OA
ATOM     12  O   UNL     1       2.788   1.957 -24.320  0.00  0.00    -0.245 OA
ATOM     13  C   UNL     1      -0.531   2.591 -23.681  0.00  0.00    +0.143 A 
ATOM     14  C   UNL     1      -1.429   2.315 -22.781  0.00  0.00    +0.093 A 
ATOM     15  C   UNL     1      -2.639   2.770 -22.911  0.00  0.00    +0.132 A 
ATOM     16  C   UNL     1      -4.871   2.298 -21.024  0.00  0.00    +0.060 C 
ATOM     17  O   UNL     1      -3.538   2.494 -22.012  0.00  0.00    -0.482 OA
ENDROOT
TORSDOF 0
ENDMDL
MODEL 5
REMARK VINA RESULT:    -9.154      1.491      5.954
REMARK INTER + INTRA:          -9.154
REMARK INTER:                  -9.154
REMARK INTRA:                   0.000
REMARK UNBOUND:                 0.000
REMARK  Name = ZINC000000338304
REMARK  2 active torsions:
REMARK  status: ('A' for Active; 'I' for Inactive)
REMARK    1  A    between atoms: C_1  and  C_2
REMARK    2  A    between atoms: C_2  and  C_3
REMARK                            x       y       z     vdW  Elec       q    Type
REMARK                         _______ _______ _______ _____ _____    ______ ____
ROOT
ATOM      1  C   UNL     1       2.940   3.002 -24.002  0.00  0.00    +0.060 C 
ATOM      2  C   UNL     1       1.696   3.020 -23.623  0.00  0.00    +0.124 C 
ATOM      3  C   UNL     1       1.562   3.405 -24.857  0.00  0.00    +0.020 C 
ATOM      4  C   UNL     1       0.382   3.673 -25.330  0.00  0.00    +0.011 C 
ATOM      5  C   UNL     1      -0.666   3.555 -24.568  0.00  0.00    +0.017 A 
ATOM      6  C   UNL     1      -1.847   3.822 -25.041  0.00  0.00    +0.023 A 
ATOM      7  C   UNL     1      -2.893   3.704 -24.279  0.00  0.00    +0.018 A 
ATOM      8  C   UNL     1      -4.075   3.972 -24.753  0.00  0.00    +0.018 A 
ATOM      9  C   UNL     1      -5.122   3.854 -23.991  0.00  0.00    +0.092 A 
ATOM     10  C   UNL     1      -4.988   3.469 -22.757  0.00  0.00    +0.337 A 
ATOM     11  O   UNL     1      -3.807   3.201 -22.284  0.00  0.00    -0.422 OA
ATOM     12  O   UNL     1      -6.034   3.351 -21.995  0.00  0.00    -0.245 OA
ATOM     13  C   UNL     1      -2.759   3.319 -23.046  0.00  0.00    +0.143 A 
ATOM     14  C   UNL     1      -1.579   3.052 -22.572  0.00  0.00    +0.093 A 
ATOM     15  C   UNL     1      -0.532   3.170 -23.334  0.00  0.00    +0.132 A 
ATOM     16  C   UNL     1       2.263   2.628 -22.520  0.00  0.00    +0.060 C 
ATOM     17  O   UNL     1       0.650   2.902 -22.861  0.00  0.00    -0.482 OA
ENDROOT
TORSDOF 0
ENDMDL
MODEL 6
REMARK VINA RESULT:    -8.823      1.368      2.447
REMARK INTER + INTRA:          -8.823
REMARK INTER:                  -8.823
REMARK INTRA:                   0.000
REMARK UNBOUND:                 0.000
REMARK  Name = ZINC000000338304
REMARK  2 active torsions:
REMARK  status: ('A' for Active; 'I' for Inactive)
REMARK    1  A    between atoms: C_1  and  C_2
REMARK    2  A    between atoms: C_2  and  C_3
REMARK                            x       y       z     vdW  Elec       q    Type
REMARK                         _______ _______ _______ _____ _____    ______ ____
ROOT
ATOM      1  C   UNL     1      -5.441   3.865 -23.871  0.00  0.00    +0.060 C 
ATOM      2  C   UNL     1      -4.216   3.581 -23.542  0.00  0.00    +0.124 C 
ATOM      3  C   UNL     1      -4.050   3.880 -24.797  0.00  0.00    +0.020 C 
ATOM      4  C   UNL     1      -2.865   3.825 -25.326  0.00  0.00    +0.011 C 
ATOM      5  C   UNL     1      -1.844   3.472 -24.602  0.00  0.00    +0.017 A 
ATOM      6  C   UNL     1      -0.659   3.417 -25.131  0.00  0.00    +0.023 A 
ATOM      7  C   UNL     1       0.361   3.064 -24.407  0.00  0.00    +0.018 A 
ATOM      8  C   UNL     1       1.548   3.009 -24.937  0.00  0.00    +0.018 A 
ATOM      9  C   UNL     1       2.567   2.656 -24.213  0.00  0.00    +0.092 A 
ATOM     10  C   UNL     1       2.402   2.358 -22.958  0.00  0.00    +0.337 A 
ATOM     11  O   UNL     1       1.216   2.413 -22.428  0.00  0.00    -0.422 OA
ATOM     12  O   UNL     1       3.421   2.005 -22.234  0.00  0.00    -0.245 OA
ATOM     13  C   UNL     1       0.195   2.766 -23.153  0.00  0.00    +0.143 A 
ATOM     14  C   UNL     1      -0.990   2.821 -22.622  0.00  0.00    +0.093 A 
ATOM     15  C   UNL     1      -2.010   3.174 -23.347  0.00  0.00    +0.132 A 
ATOM     16  C   UNL     1      -4.808   3.382 -22.402  0.00  0.00    +0.060 C 
ATOM     17  O   UNL     1      -3.196   3.229 -22.817  0.00  0.00    -0.482 OA
ENDROOT
TORSDOF 0
ENDMDL
MODEL 7
REMARK VINA RESULT:    -8.609      1.865      3.024
REMARK INTER + INTRA:          -8.609
REMARK INTER:                  -8.609
REMARK INTRA:                   0.000
REMARK UNBOUND:                 0.000
REMARK  Name = ZINC000000338304
REMARK  2 active torsions:
REMARK  status: ('A' for Active; 'I' for Inactive)
REMARK    1  A    between atoms: C_1  and  C_2
REMARK    2  A    between atoms: C_2  and  C_3
REMARK                            x       y       z     vdW  Elec       q    Type
REMARK                         _______ _______ _______ _____ _____    ______ ____
ROOT
ATOM      1  C   UNL     1      -3.731   3.362 -22.943  0.00  0.00    +0.060 C 
ATOM      2  C   UNL     1      -2.606   2.865 -22.523  0.00  0.00    +0.124 C 
ATOM      3  C   UNL     1      -2.246   3.273 -23.704  0.00  0.00    +0.020 C 
ATOM      4  C   UNL     1      -1.022   3.102 -24.106  0.00  0.00    +0.011 C 
ATOM      5  C   UNL     1      -0.157   2.523 -23.326  0.00  0.00    +0.017 A 
ATOM      6  C   UNL     1       1.067   2.352 -23.728  0.00  0.00    +0.023 A 
ATOM      7  C   UNL     1       1.932   1.774 -22.949  0.00  0.00    +0.018 A 
ATOM      8  C   UNL     1       3.157   1.603 -23.351  0.00  0.00    +0.018 A 
ATOM      9  C   UNL     1       4.022   1.024 -22.572  0.00  0.00    +0.092 A 
ATOM     10  C   UNL     1       3.662   0.617 -21.391  0.00  0.00    +0.337 A 
ATOM     11  O   UNL     1       2.438   0.788 -20.989  0.00  0.00    -0.422 OA
ATOM     12  O   UNL     1       4.527   0.038 -20.612  0.00  0.00    -0.245 OA
ATOM     13  C   UNL     1       1.573   1.367 -21.769  0.00  0.00    +0.143 A 
ATOM     14  C   UNL     1       0.348   1.537 -21.366  0.00  0.00    +0.093 A 
ATOM     15  C   UNL     1      -0.516   2.116 -22.145  0.00  0.00    +0.132 A 
ATOM     16  C   UNL     1      -3.357   2.631 -21.488  0.00  0.00    +0.060 C 
ATOM     17  O   UNL     1      -1.741   2.287 -21.744  0.00  0.00    -0.482 OA
ENDROOT
TORSDOF 0
ENDMDL
MODEL 8
REMARK VINA RESULT:    -8.329      1.806      6.206
REMARK INTER + INTRA:          -8.329
REMARK INTER:                  -8.329
REMARK INTRA:                   0.000
REMARK UNBOUND:                 0.000
REMARK  Name = ZINC000000338304
REMARK  2 active torsions:
REMARK  status: ('A' for Active; 'I' for Inactive)
REMARK    1  A    between atoms: C_1  and  C_2
REMARK    2  A    between atoms: C_2  and  C_3
REMARK                            x       y       z     vdW  Elec       q    Type
REMARK                         _______ _______ _______ _____ _____    ______ ____
ROOT
ATOM      1  C   UNL     1       4.799   0.771 -22.043  0.00  0.00    +0.060 C 
ATOM      2  C   UNL     1       3.529   0.976 -21.856  0.00  0.00    +0.124 C 
ATOM      3  C   UNL     1       3.677   1.522 -23.027  0.00  0.00    +0.020 C 
ATOM      4  C   UNL     1       2.656   2.059 -23.626  0.00  0.00    +0.011 C 
ATOM      5  C   UNL     1       1.488   2.050 -23.056  0.00  0.00    +0.017 A 
ATOM      6  C   UNL     1       0.467   2.587 -23.656  0.00  0.00    +0.023 A 
ATOM      7  C   UNL     1      -0.701   2.578 -23.085  0.00  0.00    +0.018 A 
ATOM      8  C   UNL     1      -1.722   3.116 -23.686  0.00  0.00    +0.018 A 
ATOM      9  C   UNL     1      -2.889   3.107 -23.115  0.00  0.00    +0.092 A 
ATOM     10  C   UNL     1      -3.037   2.561 -21.944  0.00  0.00    +0.337 A 
ATOM     11  O   UNL     1      -2.017   2.024 -21.344  0.00  0.00    -0.422 OA
ATOM     12  O   UNL     1      -4.205   2.552 -21.374  0.00  0.00    -0.245 OA
ATOM     13  C   UNL     1      -0.848   2.033 -21.915  0.00  0.00    +0.143 A 
ATOM     14  C   UNL     1       0.172   1.495 -21.314  0.00  0.00    +0.093 A 
ATOM     15  C   UNL     1       1.340   1.504 -21.885  0.00  0.00    +0.132 A 
ATOM     16  C   UNL     1       3.823   0.359 -20.750  0.00  0.00    +0.060 C 
ATOM     17  O   UNL     1       2.361   0.967 -21.285  0.00  0.00    -0.482 OA
ENDROOT
TORSDOF 0
ENDMDL
MODEL 9
REMARK VINA RESULT:    -8.040      1.501      2.385
REMARK INTER + INTRA:          -8.040
REMARK INTER:                  -8.040
REMARK INTRA:                   0.000
REMARK UNBOUND:                 0.000
REMARK  Name = ZINC000000338304
REMARK  2 active torsions:
REMARK  status: ('A' for Active; 'I' for Inactive)
REMARK    1  A    between atoms: C_1  and  C_2
REMARK    2  A    between atoms: C_2  and  C_3
REMARK                            x       y       z     vdW  Elec       q    Type
REMARK                         _______ _______ _______ _____ _____    ______ ____
ROOT
ATOM      1  C   UNL     1      -3.622   3.090 -22.654  0.00  0.00    +0.060 C 
ATOM      2  C   UNL     1      -2.353   3.149 -22.931  0.00  0.00    +0.124 C 
ATOM      3  C   UNL     1      -2.328   2.329 -21.922  0.00  0.00    +0.020 C 
ATOM      4  C   UNL     1      -1.195   1.845 -21.507  0.00  0.00    +0.011 C 
ATOM      5  C   UNL     1      -0.088   2.181 -22.100  0.00  0.00    +0.017 A 
ATOM      6  C   UNL     1       1.045   1.697 -21.685  0.00  0.00    +0.023 A 
ATOM      7  C   UNL     1       2.151   2.033 -22.278  0.00  0.00    +0.018 A 
ATOM      8  C   UNL     1       3.285   1.548 -21.862  0.00  0.00    +0.018 A 
ATOM      9  C   UNL     1       4.392   1.885 -22.455  0.00  0.00    +0.092 A 
ATOM     10  C   UNL     1       4.366   2.705 -23.463  0.00  0.00    +0.337 A 
ATOM     11  O   UNL     1       3.233   3.189 -23.878  0.00  0.00    -0.422 OA
ATOM     12  O   UNL     1       5.473   3.041 -24.056  0.00  0.00    -0.245 OA
ATOM     13  C   UNL     1       2.126   2.852 -23.285  0.00  0.00    +0.143 A 
ATOM     14  C   UNL     1       0.993   3.337 -23.701  0.00  0.00    +0.093 A 
ATOM     15  C   UNL     1      -0.113   3.001 -23.108  0.00  0.00    +0.132 A 
ATOM     16  C   UNL     1      -2.820   3.948 -23.843  0.00  0.00    +0.060 C 
ATOM     17  O   UNL     1      -1.247   3.485 -23.524  0.00  0.00    -0.482 OA
ENDROOT
TORSDOF 0
ENDMDL
