MODEL 1
REMARK VINA RESULT:    -8.011      0.000      0.000
REMARK INTER + INTRA:          -9.988
REMARK INTER:                  -9.878
REMARK INTRA:                  -0.110
REMARK UNBOUND:                -0.103
REMARK  Name = ZINC000000338408
REMARK  7 active torsions:
REMARK  status: ('A' for Active; 'I' for Inactive)
REMARK    1  A    between atoms: C_1  and  C_2
REMARK    2  A    between atoms: C_2  and  N_3
REMARK    3  A    between atoms: C_4  and  C_5
REMARK    4  A    between atoms: C_13  and  O_14
REMARK    5  A    between atoms: O_14  and  C_15
REMARK    6  A    between atoms: C_16  and  O_17
REMARK    7  A    between atoms: O_17  and  C_18
REMARK                            x       y       z     vdW  Elec       q    Type
REMARK                         _______ _______ _______ _____ _____    ______ ____
ROOT
ATOM      1  N   UNL     1      -2.075   3.852 -24.450  0.00  0.00    -0.228 N 
ATOM      2  C   UNL     1      -1.586   3.320 -23.369  0.00  0.00    +0.217 C 
ATOM      3  C   UNL     1      -0.376   2.844 -23.369  0.00  0.00    +0.053 A 
ATOM      4  C   UNL     1       0.112   2.311 -22.289  0.00  0.00    +0.064 A 
ATOM      5  C   UNL     1       1.322   1.835 -22.288  0.00  0.00    +0.162 A 
ATOM      6  C   UNL     1       2.043   1.891 -23.369  0.00  0.00    +0.162 A 
ATOM      7  C   UNL     1       1.554   2.424 -24.450  0.00  0.00    +0.054 A 
ATOM      8  C   UNL     1       0.344   2.900 -24.450  0.00  0.00    -0.024 A 
ATOM      9  C   UNL     1      -0.144   3.432 -25.530  0.00  0.00    +0.108 C 
ATOM     10  C   UNL     1      -1.354   3.909 -25.531  0.00  0.00    +0.355 C 
ENDROOT
BRANCH   2  11
ATOM     11  C   UNL     1      -2.306   3.263 -22.289  0.00  0.00    +0.046 A 
ATOM     12  C   UNL     1      -2.199   4.194 -21.387  0.00  0.00    +0.014 A 
ATOM     13  C   UNL     1      -2.919   4.137 -20.306  0.00  0.00    +0.001 A 
ATOM     14  C   UNL     1      -3.748   3.151 -20.128  0.00  0.00    +0.000 A 
ATOM     15  C   UNL     1      -3.855   2.221 -21.030  0.00  0.00    +0.001 A 
ATOM     16  C   UNL     1      -3.134   2.277 -22.110  0.00  0.00    +0.014 A 
ENDBRANCH   2  11
BRANCH   1  18
ATOM     17  C   UNL     1      -4.050   4.157 -25.487  0.00  0.00    +0.082 C 
ATOM     18  C   UNL     1      -3.284   4.328 -24.450  0.00  0.00    +0.347 C 
ENDBRANCH   1  18
BRANCH   6  19
ATOM     19  O   UNL     1       3.253   1.415 -23.369  0.00  0.00    -0.491 OA
ATOM     20  C   UNL     1       4.259   2.197 -23.627  0.00  0.00    +0.277 C 
ENDBRANCH   6  19
BRANCH   5  21
ATOM     21  O   UNL     1       1.811   1.303 -21.208  0.00  0.00    -0.491 OA
ATOM     22  C   UNL     1       1.226   1.501 -20.064  0.00  0.00    +0.277 C 
ENDBRANCH   5  21
TORSDOF 4
ENDMDL
MODEL 2
REMARK VINA RESULT:    -7.859      1.547      3.900
REMARK INTER + INTRA:          -9.800
REMARK INTER:                  -9.783
REMARK INTRA:                  -0.017
REMARK UNBOUND:                -0.103
REMARK  Name = ZINC000000338408
REMARK  7 active torsions:
REMARK  status: ('A' for Active; 'I' for Inactive)
REMARK    1  A    between atoms: C_1  and  C_2
REMARK    2  A    between atoms: C_2  and  N_3
REMARK    3  A    between atoms: C_4  and  C_5
REMARK    4  A    between atoms: C_13  and  O_14
REMARK    5  A    between atoms: O_14  and  C_15
REMARK    6  A    between atoms: C_16  and  O_17
REMARK    7  A    between atoms: O_17  and  C_18
REMARK                            x       y       z     vdW  Elec       q    Type
REMARK                         _______ _______ _______ _____ _____    ______ ____
ROOT
ATOM      1  N   UNL     1      -3.755   3.044 -22.148  0.00  0.00    -0.228 N 
ATOM      2  C   UNL     1      -2.873   2.980 -23.102  0.00  0.00    +0.217 C 
ATOM      3  C   UNL     1      -1.657   2.605 -22.840  0.00  0.00    +0.053 A 
ATOM      4  C   UNL     1      -0.776   2.541 -23.794  0.00  0.00    +0.064 A 
ATOM      5  C   UNL     1       0.441   2.166 -23.531  0.00  0.00    +0.162 A 
ATOM      6  C   UNL     1       0.777   1.855 -22.314  0.00  0.00    +0.162 A 
ATOM      7  C   UNL     1      -0.105   1.920 -21.360  0.00  0.00    +0.054 A 
ATOM      8  C   UNL     1      -1.321   2.295 -21.623  0.00  0.00    -0.024 A 
ATOM      9  C   UNL     1      -2.201   2.359 -20.669  0.00  0.00    +0.108 C 
ATOM     10  C   UNL     1      -3.419   2.734 -20.931  0.00  0.00    +0.355 C 
ENDROOT
BRANCH   2  11
ATOM     11  C   UNL     1      -3.209   3.290 -24.319  0.00  0.00    +0.046 A 
ATOM     12  C   UNL     1      -3.431   2.352 -25.192  0.00  0.00    +0.014 A 
ATOM     13  C   UNL     1      -3.767   2.662 -26.409  0.00  0.00    +0.001 A 
ATOM     14  C   UNL     1      -3.881   3.911 -26.753  0.00  0.00    +0.000 A 
ATOM     15  C   UNL     1      -3.659   4.849 -25.881  0.00  0.00    +0.001 A 
ATOM     16  C   UNL     1      -3.323   4.538 -24.664  0.00  0.00    +0.014 A 
ENDBRANCH   2  11
BRANCH   1  18
ATOM     17  C   UNL     1      -5.971   2.855 -21.802  0.00  0.00    +0.082 C 
ATOM     18  C   UNL     1      -4.971   3.419 -22.411  0.00  0.00    +0.347 C 
ENDBRANCH   1  18
BRANCH   6  19
ATOM     19  O   UNL     1       1.993   1.480 -22.051  0.00  0.00    -0.491 OA
ATOM     20  C   UNL     1       2.435   1.517 -20.829  0.00  0.00    +0.277 C 
ENDBRANCH   6  19
BRANCH   5  21
ATOM     21  O   UNL     1       1.321   2.101 -24.485  0.00  0.00    -0.491 OA
ATOM     22  C   UNL     1       1.504   3.121 -25.270  0.00  0.00    +0.277 C 
ENDBRANCH   5  21
TORSDOF 4
ENDMDL
MODEL 3
REMARK VINA RESULT:    -6.953      2.846      6.172
REMARK INTER + INTRA:          -8.683
REMARK INTER:                  -8.597
REMARK INTRA:                  -0.086
REMARK UNBOUND:                -0.103
REMARK  Name = ZINC000000338408
REMARK  7 active torsions:
REMARK  status: ('A' for Active; 'I' for Inactive)
REMARK    1  A    between atoms: C_1  and  C_2
REMARK    2  A    between atoms: C_2  and  N_3
REMARK    3  A    between atoms: C_4  and  C_5
REMARK    4  A    between atoms: C_13  and  O_14
REMARK    5  A    between atoms: O_14  and  C_15
REMARK    6  A    between atoms: C_16  and  O_17
REMARK    7  A    between atoms: O_17  and  C_18
REMARK                            x       y       z     vdW  Elec       q    Type
REMARK                         _______ _______ _______ _____ _____    ______ ____
ROOT
ATOM      1  N   UNL     1       0.134   1.894 -21.881  0.00  0.00    -0.228 N 
ATOM      2  C   UNL     1      -0.432   2.693 -22.737  0.00  0.00    +0.217 C 
ATOM      3  C   UNL     1      -1.717   2.887 -22.694  0.00  0.00    +0.053 A 
ATOM      4  C   UNL     1      -2.282   3.685 -23.549  0.00  0.00    +0.064 A 
ATOM      5  C   UNL     1      -3.568   3.879 -23.507  0.00  0.00    +0.162 A 
ATOM      6  C   UNL     1      -4.287   3.274 -22.609  0.00  0.00    +0.162 A 
ATOM      7  C   UNL     1      -3.720   2.475 -21.753  0.00  0.00    +0.054 A 
ATOM      8  C   UNL     1      -2.436   2.281 -21.796  0.00  0.00    -0.024 A 
ATOM      9  C   UNL     1      -1.870   1.482 -20.941  0.00  0.00    +0.108 C 
ATOM     10  C   UNL     1      -0.585   1.288 -20.983  0.00  0.00    +0.355 C 
ENDROOT
BRANCH   2  11
ATOM     11  C   UNL     1       0.287   3.299 -23.635  0.00  0.00    +0.046 A 
ATOM     12  C   UNL     1       0.448   2.762 -24.808  0.00  0.00    +0.014 A 
ATOM     13  C   UNL     1       1.167   3.367 -25.706  0.00  0.00    +0.001 A 
ATOM     14  C   UNL     1       1.725   4.509 -25.431  0.00  0.00    +0.000 A 
ATOM     15  C   UNL     1       1.563   5.045 -24.258  0.00  0.00    +0.001 A 
ATOM     16  C   UNL     1       0.844   4.440 -23.360  0.00  0.00    +0.014 A 
ENDBRANCH   2  11
BRANCH   1  18
ATOM     17  C   UNL     1       2.077   1.467 -20.828  0.00  0.00    +0.082 C 
ATOM     18  C   UNL     1       1.418   1.700 -21.924  0.00  0.00    +0.347 C 
ENDBRANCH   1  18
BRANCH   6  19
ATOM     19  O   UNL     1      -5.571   3.467 -22.566  0.00  0.00    -0.491 OA
ATOM     20  C   UNL     1      -6.315   2.725 -21.801  0.00  0.00    +0.277 C 
ENDBRANCH   6  19
BRANCH   5  21
ATOM     21  O   UNL     1      -4.133   4.678 -24.362  0.00  0.00    -0.491 OA
ATOM     22  C   UNL     1      -4.239   4.326 -25.609  0.00  0.00    +0.277 C 
ENDBRANCH   5  21
TORSDOF 4
ENDMDL
MODEL 4
REMARK VINA RESULT:    -6.432      3.514      5.962
REMARK INTER + INTRA:          -8.040
REMARK INTER:                  -8.447
REMARK INTRA:                   0.407
REMARK UNBOUND:                -0.103
REMARK  Name = ZINC000000338408
REMARK  7 active torsions:
REMARK  status: ('A' for Active; 'I' for Inactive)
REMARK    1  A    between atoms: C_1  and  C_2
REMARK    2  A    between atoms: C_2  and  N_3
REMARK    3  A    between atoms: C_4  and  C_5
REMARK    4  A    between atoms: C_13  and  O_14
REMARK    5  A    between atoms: O_14  and  C_15
REMARK    6  A    between atoms: C_16  and  O_17
REMARK    7  A    between atoms: O_17  and  C_18
REMARK                            x       y       z     vdW  Elec       q    Type
REMARK                         _______ _______ _______ _____ _____    ______ ____
ROOT
ATOM      1  N   UNL     1       2.428   1.544 -21.836  0.00  0.00    -0.228 N 
ATOM      2  C   UNL     1       2.972   2.488 -22.547  0.00  0.00    +0.217 C 
ATOM      3  C   UNL     1       4.168   2.908 -22.263  0.00  0.00    +0.053 A 
ATOM      4  C   UNL     1       4.711   3.851 -22.974  0.00  0.00    +0.064 A 
ATOM      5  C   UNL     1       5.909   4.272 -22.690  0.00  0.00    +0.162 A 
ATOM      6  C   UNL     1       6.562   3.750 -21.695  0.00  0.00    +0.162 A 
ATOM      7  C   UNL     1       6.018   2.806 -20.984  0.00  0.00    +0.054 A 
ATOM      8  C   UNL     1       4.821   2.386 -21.268  0.00  0.00    -0.024 A 
ATOM      9  C   UNL     1       4.278   1.443 -20.557  0.00  0.00    +0.108 C 
ATOM     10  C   UNL     1       3.081   1.022 -20.841  0.00  0.00    +0.355 C 
ENDROOT
BRANCH   2  11
ATOM     11  C   UNL     1       2.318   3.010 -23.543  0.00  0.00    +0.046 A 
ATOM     12  C   UNL     1       1.721   4.157 -23.398  0.00  0.00    +0.014 A 
ATOM     13  C   UNL     1       1.068   4.679 -24.393  0.00  0.00    +0.001 A 
ATOM     14  C   UNL     1       1.012   4.055 -25.533  0.00  0.00    +0.000 A 
ATOM     15  C   UNL     1       1.608   2.910 -25.677  0.00  0.00    +0.001 A 
ATOM     16  C   UNL     1       2.262   2.387 -24.682  0.00  0.00    +0.014 A 
ENDBRANCH   2  11
BRANCH   1  18
ATOM     17  C   UNL     1       0.232   1.441 -21.352  0.00  0.00    +0.082 C 
ATOM     18  C   UNL     1       1.231   1.124 -22.121  0.00  0.00    +0.347 C 
ENDBRANCH   1  18
BRANCH   6  19
ATOM     19  O   UNL     1       7.758   4.170 -21.411  0.00  0.00    -0.491 OA
ATOM     20  C   UNL     1       7.951   4.931 -20.375  0.00  0.00    +0.277 C 
ENDBRANCH   6  19
BRANCH   5  21
ATOM     21  O   UNL     1       6.452   5.215 -23.401  0.00  0.00    -0.491 OA
ATOM     22  C   UNL     1       7.404   4.930 -24.238  0.00  0.00    +0.277 C 
ENDBRANCH   5  21
TORSDOF 4
ENDMDL
MODEL 5
REMARK VINA RESULT:    -6.275      2.278      5.130
REMARK INTER + INTRA:          -7.845
REMARK INTER:                  -8.863
REMARK INTRA:                   1.018
REMARK UNBOUND:                -0.103
REMARK  Name = ZINC000000338408
REMARK  7 active torsions:
REMARK  status: ('A' for Active; 'I' for Inactive)
REMARK    1  A    between atoms: C_1  and  C_2
REMARK    2  A    between atoms: C_2  and  N_3
REMARK    3  A    between atoms: C_4  and  C_5
REMARK    4  A    between atoms: C_13  and  O_14
REMARK    5  A    between atoms: O_14  and  C_15
REMARK    6  A    between atoms: C_16  and  O_17
REMARK    7  A    between atoms: O_17  and  C_18
REMARK                            x       y       z     vdW  Elec       q    Type
REMARK                         _______ _______ _______ _____ _____    ______ ____
ROOT
ATOM      1  N   UNL     1       0.303   3.165 -25.039  0.00  0.00    -0.228 N 
ATOM      2  C   UNL     1       0.033   2.945 -23.786  0.00  0.00    +0.217 C 
ATOM      3  C   UNL     1      -1.182   3.095 -23.347  0.00  0.00    +0.053 A 
ATOM      4  C   UNL     1      -1.452   2.875 -22.095  0.00  0.00    +0.064 A 
ATOM      5  C   UNL     1      -2.666   3.025 -21.656  0.00  0.00    +0.162 A 
ATOM      6  C   UNL     1      -3.611   3.395 -22.469  0.00  0.00    +0.162 A 
ATOM      7  C   UNL     1      -3.340   3.614 -23.722  0.00  0.00    +0.054 A 
ATOM      8  C   UNL     1      -2.126   3.464 -24.161  0.00  0.00    -0.024 A 
ATOM      9  C   UNL     1      -1.856   3.684 -25.413  0.00  0.00    +0.108 C 
ATOM     10  C   UNL     1      -0.641   3.534 -25.853  0.00  0.00    +0.355 C 
ENDROOT
BRANCH   2  11
ATOM     11  C   UNL     1       0.977   2.576 -22.973  0.00  0.00    +0.046 A 
ATOM     12  C   UNL     1       0.877   1.449 -22.330  0.00  0.00    +0.014 A 
ATOM     13  C   UNL     1       1.821   1.080 -21.517  0.00  0.00    +0.001 A 
ATOM     14  C   UNL     1       2.865   1.837 -21.345  0.00  0.00    +0.000 A 
ATOM     15  C   UNL     1       2.964   2.962 -21.988  0.00  0.00    +0.001 A 
ATOM     16  C   UNL     1       2.020   3.332 -22.801  0.00  0.00    +0.014 A 
ENDBRANCH   2  11
BRANCH   1  18
ATOM     17  C   UNL     1       1.875   1.893 -26.028  0.00  0.00    +0.082 C 
ATOM     18  C   UNL     1       1.517   3.015 -25.478  0.00  0.00    +0.347 C 
ENDBRANCH   1  18
BRANCH   6  19
ATOM     19  O   UNL     1      -4.825   3.544 -22.031  0.00  0.00    -0.491 OA
ATOM     20  C   UNL     1      -5.828   3.454 -22.852  0.00  0.00    +0.277 C 
ENDBRANCH   6  19
BRANCH   5  21
ATOM     21  O   UNL     1      -2.936   2.805 -20.403  0.00  0.00    -0.491 OA
ATOM     22  C   UNL     1      -3.049   3.803 -19.578  0.00  0.00    +0.277 C 
ENDBRANCH   5  21
TORSDOF 4
ENDMDL
MODEL 6
REMARK VINA RESULT:    -6.016      2.821      6.003
REMARK INTER + INTRA:          -7.526
REMARK INTER:                  -8.116
REMARK INTRA:                   0.590
REMARK UNBOUND:                -0.103
REMARK  Name = ZINC000000338408
REMARK  7 active torsions:
REMARK  status: ('A' for Active; 'I' for Inactive)
REMARK    1  A    between atoms: C_1  and  C_2
REMARK    2  A    between atoms: C_2  and  N_3
REMARK    3  A    between atoms: C_4  and  C_5
REMARK    4  A    between atoms: C_13  and  O_14
REMARK    5  A    between atoms: O_14  and  C_15
REMARK    6  A    between atoms: C_16  and  O_17
REMARK    7  A    between atoms: O_17  and  C_18
REMARK                            x       y       z     vdW  Elec       q    Type
REMARK                         _______ _______ _______ _____ _____    ______ ____
ROOT
ATOM      1  N   UNL     1       4.040   4.470 -22.726  0.00  0.00    -0.228 N 
ATOM      2  C   UNL     1       3.295   3.417 -22.560  0.00  0.00    +0.217 C 
ATOM      3  C   UNL     1       2.036   3.454 -22.879  0.00  0.00    +0.053 A 
ATOM      4  C   UNL     1       1.292   2.402 -22.713  0.00  0.00    +0.064 A 
ATOM      5  C   UNL     1       0.032   2.439 -23.032  0.00  0.00    +0.162 A 
ATOM      6  C   UNL     1      -0.484   3.529 -23.518  0.00  0.00    +0.162 A 
ATOM      7  C   UNL     1       0.261   4.582 -23.684  0.00  0.00    +0.054 A 
ATOM      8  C   UNL     1       1.520   4.545 -23.365  0.00  0.00    -0.024 A 
ATOM      9  C   UNL     1       2.264   5.597 -23.531  0.00  0.00    +0.108 C 
ATOM     10  C   UNL     1       3.524   5.560 -23.212  0.00  0.00    +0.355 C 
ENDROOT
BRANCH   2  11
ATOM     11  C   UNL     1       3.810   2.327 -22.074  0.00  0.00    +0.046 A 
ATOM     12  C   UNL     1       3.326   1.809 -20.984  0.00  0.00    +0.014 A 
ATOM     13  C   UNL     1       3.841   0.719 -20.498  0.00  0.00    +0.001 A 
ATOM     14  C   UNL     1       4.841   0.146 -21.103  0.00  0.00    +0.000 A 
ATOM     15  C   UNL     1       5.324   0.664 -22.192  0.00  0.00    +0.001 A 
ATOM     16  C   UNL     1       4.809   1.755 -22.678  0.00  0.00    +0.014 A 
ENDBRANCH   2  11
BRANCH   1  18
ATOM     17  C   UNL     1       6.017   5.514 -22.469  0.00  0.00    +0.082 C 
ATOM     18  C   UNL     1       5.299   4.433 -22.407  0.00  0.00    +0.347 C 
ENDBRANCH   1  18
BRANCH   6  19
ATOM     19  O   UNL     1      -1.743   3.566 -23.838  0.00  0.00    -0.491 OA
ATOM     20  C   UNL     1      -2.094   3.679 -25.084  0.00  0.00    +0.277 C 
ENDBRANCH   6  19
BRANCH   5  21
ATOM     21  O   UNL     1      -0.712   1.386 -22.866  0.00  0.00    -0.491 OA
ATOM     22  C   UNL     1      -1.038   1.003 -21.667  0.00  0.00    +0.277 C 
ENDBRANCH   5  21
TORSDOF 4
ENDMDL
MODEL 7
REMARK VINA RESULT:    -5.157      5.719      8.496
REMARK INTER + INTRA:          -6.466
REMARK INTER:                  -6.397
REMARK INTRA:                  -0.069
REMARK UNBOUND:                -0.103
REMARK  Name = ZINC000000338408
REMARK  7 active torsions:
REMARK  status: ('A' for Active; 'I' for Inactive)
REMARK    1  A    between atoms: C_1  and  C_2
REMARK    2  A    between atoms: C_2  and  N_3
REMARK    3  A    between atoms: C_4  and  C_5
REMARK    4  A    between atoms: C_13  and  O_14
REMARK    5  A    between atoms: O_14  and  C_15
REMARK    6  A    between atoms: C_16  and  O_17
REMARK    7  A    between atoms: O_17  and  C_18
REMARK                            x       y       z     vdW  Elec       q    Type
REMARK                         _______ _______ _______ _____ _____    ______ ____
ROOT
ATOM      1  N   UNL     1       7.675   6.747 -21.177  0.00  0.00    -0.228 N 
ATOM      2  C   UNL     1       6.446   6.735 -21.602  0.00  0.00    +0.217 C 
ATOM      3  C   UNL     1       5.966   5.670 -22.171  0.00  0.00    +0.053 A 
ATOM      4  C   UNL     1       4.738   5.658 -22.595  0.00  0.00    +0.064 A 
ATOM      5  C   UNL     1       4.256   4.592 -23.164  0.00  0.00    +0.162 A 
ATOM      6  C   UNL     1       5.004   3.539 -23.308  0.00  0.00    +0.162 A 
ATOM      7  C   UNL     1       6.233   3.551 -22.883  0.00  0.00    +0.054 A 
ATOM      8  C   UNL     1       6.714   4.616 -22.314  0.00  0.00    -0.024 A 
ATOM      9  C   UNL     1       7.942   4.628 -21.889  0.00  0.00    +0.108 C 
ATOM     10  C   UNL     1       8.423   5.694 -21.320  0.00  0.00    +0.355 C 
ENDROOT
BRANCH   2  11
ATOM     11  C   UNL     1       5.698   7.789 -21.458  0.00  0.00    +0.046 A 
ATOM     12  C   UNL     1       4.912   7.891 -20.428  0.00  0.00    +0.014 A 
ATOM     13  C   UNL     1       4.164   8.945 -20.284  0.00  0.00    +0.001 A 
ATOM     14  C   UNL     1       4.203   9.896 -21.171  0.00  0.00    +0.000 A 
ATOM     15  C   UNL     1       4.989   9.792 -22.200  0.00  0.00    +0.001 A 
ATOM     16  C   UNL     1       5.737   8.739 -22.344  0.00  0.00    +0.014 A 
ENDBRANCH   2  11
BRANCH   1  18
ATOM     17  C   UNL     1       8.921   7.702 -19.563  0.00  0.00    +0.082 C 
ATOM     18  C   UNL     1       8.156   7.812 -20.608  0.00  0.00    +0.347 C 
ENDBRANCH   1  18
BRANCH   6  19
ATOM     19  O   UNL     1       4.524   2.473 -23.877  0.00  0.00    -0.491 OA
ATOM     20  C   UNL     1       4.206   1.439 -23.156  0.00  0.00    +0.277 C 
ENDBRANCH   6  19
BRANCH   5  21
ATOM     21  O   UNL     1       3.028   4.580 -23.589  0.00  0.00    -0.491 OA
ATOM     22  C   UNL     1       2.209   5.526 -23.235  0.00  0.00    +0.277 C 
ENDBRANCH   5  21
TORSDOF 4
ENDMDL
