MODEL 1
REMARK VINA RESULT:   -10.531      0.000      0.000
REMARK INTER + INTRA:         -10.839
REMARK INTER:                 -10.839
REMARK INTRA:                   0.000
REMARK UNBOUND:                 0.000
REMARK  Name = ZINC000032106796
REMARK  3 active torsions:
REMARK  status: ('A' for Active; 'I' for Inactive)
REMARK    1  A    between atoms: C_8  and  C_9
REMARK    2  A    between atoms: C_10  and  O_11
REMARK    3  A    between atoms: C_14  and  C_15
REMARK                            x       y       z     vdW  Elec       q    Type
REMARK                         _______ _______ _______ _____ _____    ______ ____
ROOT
ATOM      1  C   UNL     1       0.644   1.504 -21.210  0.00  0.00    +0.020 C 
ATOM      2  C   UNL     1      -0.082   1.948 -22.195  0.00  0.00    +0.036 C 
ATOM      3  C   UNL     1       0.318   2.119 -23.424  0.00  0.00    +0.336 C 
ATOM      4  O   UNL     1      -0.685   2.576 -24.118  0.00  0.00    -0.453 OA
ATOM      5  C   UNL     1      -1.707   2.687 -23.316  0.00  0.00    +0.207 C 
ATOM      6  C   UNL     1      -2.791   3.046 -23.490  0.00  0.00    +0.019 C 
ATOM      7  C   UNL     1      -3.210   3.440 -24.649  0.00  0.00    -0.045 C 
ATOM      8  C   UNL     1      -4.512   3.860 -24.810  0.00  0.00    +0.144 C 
ATOM      9  C   UNL     1      -5.464   3.893 -23.761  0.00  0.00    +0.063 C 
ATOM     10  C   UNL     1      -5.205   3.517 -22.481  0.00  0.00    -0.025 C 
ATOM     11  C   UNL     1      -4.078   3.137 -22.274  0.00  0.00    -0.076 C 
ATOM     12  C   UNL     1      -3.575   2.725 -21.143  0.00  0.00    +0.031 C 
ATOM     13  C   UNL     1      -2.236   2.313 -21.061  0.00  0.00    +0.016 C 
ATOM     14  C   UNL     1      -3.464   3.155 -23.116  0.00  0.00    +0.039 C 
ATOM     15  C   UNL     1      -2.394   3.442 -25.675  0.00  0.00    +0.041 C 
ATOM     16  O   UNL     1       1.514   1.877 -23.884  0.00  0.00    -0.245 OA
ATOM     17  C   UNL     1      -1.336   2.300 -22.131  0.00  0.00    +0.070 C 
ENDROOT
BRANCH   8  18
ATOM     18  O   UNL     1      -4.890   4.251 -26.002  0.00  0.00    -0.387 OA
ATOM     19  H   UNL     1      -5.551   3.632 -26.351  0.00  0.00    +0.210 HD
ENDBRANCH   8  18
TORSDOF 1
ENDMDL
MODEL 2
REMARK VINA RESULT:   -10.374      1.649      2.759
REMARK INTER + INTRA:         -10.678
REMARK INTER:                 -10.678
REMARK INTRA:                   0.000
REMARK UNBOUND:                 0.000
REMARK  Name = ZINC000032106796
REMARK  3 active torsions:
REMARK  status: ('A' for Active; 'I' for Inactive)
REMARK    1  A    between atoms: C_8  and  C_9
REMARK    2  A    between atoms: C_10  and  O_11
REMARK    3  A    between atoms: C_14  and  C_15
REMARK                            x       y       z     vdW  Elec       q    Type
REMARK                         _______ _______ _______ _____ _____    ______ ____
ROOT
ATOM      1  C   UNL     1       1.484   2.126 -22.928  0.00  0.00    +0.020 C 
ATOM      2  C   UNL     1       0.249   2.239 -22.534  0.00  0.00    +0.036 C 
ATOM      3  C   UNL     1      -0.224   1.862 -21.379  0.00  0.00    +0.336 C 
ATOM      4  O   UNL     1      -1.496   2.136 -21.351  0.00  0.00    -0.453 OA
ATOM      5  C   UNL     1      -1.811   2.684 -22.493  0.00  0.00    +0.207 C 
ATOM      6  C   UNL     1      -2.812   3.083 -22.909  0.00  0.00    +0.019 C 
ATOM      7  C   UNL     1      -3.909   3.043 -22.224  0.00  0.00    -0.045 C 
ATOM      8  C   UNL     1      -5.080   3.531 -22.761  0.00  0.00    +0.144 C 
ATOM      9  C   UNL     1      -5.177   4.094 -24.058  0.00  0.00    +0.063 C 
ATOM     10  C   UNL     1      -4.132   4.219 -24.918  0.00  0.00    -0.025 C 
ATOM     11  C   UNL     1      -3.074   3.809 -24.505  0.00  0.00    -0.076 C 
ATOM     12  C   UNL     1      -1.926   3.810 -25.125  0.00  0.00    +0.031 C 
ATOM     13  C   UNL     1      -0.777   3.294 -24.507  0.00  0.00    +0.016 C 
ATOM     14  C   UNL     1      -3.119   3.416 -23.541  0.00  0.00    +0.039 C 
ATOM     15  C   UNL     1      -3.909   2.538 -21.015  0.00  0.00    +0.041 C 
ATOM     16  O   UNL     1       0.456   1.306 -20.415  0.00  0.00    -0.245 OA
ATOM     17  C   UNL     1      -0.736   2.747 -23.221  0.00  0.00    +0.070 C 
ENDROOT
BRANCH   8  18
ATOM     18  O   UNL     1      -6.166   3.469 -22.030  0.00  0.00    -0.387 OA
ATOM     19  H   UNL     1      -6.786   2.836 -22.425  0.00  0.00    +0.210 HD
ENDBRANCH   8  18
TORSDOF 1
ENDMDL
MODEL 3
REMARK VINA RESULT:    -9.516      1.166      4.587
REMARK INTER + INTRA:          -9.794
REMARK INTER:                  -9.794
REMARK INTRA:                   0.000
REMARK UNBOUND:                 0.000
REMARK  Name = ZINC000032106796
REMARK  3 active torsions:
REMARK  status: ('A' for Active; 'I' for Inactive)
REMARK    1  A    between atoms: C_8  and  C_9
REMARK    2  A    between atoms: C_10  and  O_11
REMARK    3  A    between atoms: C_14  and  C_15
REMARK                            x       y       z     vdW  Elec       q    Type
REMARK                         _______ _______ _______ _____ _____    ______ ____
ROOT
ATOM      1  C   UNL     1      -5.195   3.747 -23.247  0.00  0.00    +0.020 C 
ATOM      2  C   UNL     1      -3.962   3.702 -23.661  0.00  0.00    +0.036 C 
ATOM      3  C   UNL     1      -3.507   4.220 -24.768  0.00  0.00    +0.336 C 
ATOM      4  O   UNL     1      -2.231   3.972 -24.838  0.00  0.00    -0.453 OA
ATOM      5  C   UNL     1      -1.896   3.300 -23.771  0.00  0.00    +0.207 C 
ATOM      6  C   UNL     1      -0.885   2.873 -23.413  0.00  0.00    +0.019 C 
ATOM      7  C   UNL     1       0.205   3.011 -24.096  0.00  0.00    -0.045 C 
ATOM      8  C   UNL     1       1.388   2.485 -23.629  0.00  0.00    +0.144 C 
ATOM      9  C   UNL     1       1.507   1.775 -22.408  0.00  0.00    +0.063 C 
ATOM     10  C   UNL     1       0.473   1.533 -21.561  0.00  0.00    -0.025 C 
ATOM     11  C   UNL     1      -0.595   1.970 -21.914  0.00  0.00    -0.076 C 
ATOM     12  C   UNL     1      -1.737   1.876 -21.289  0.00  0.00    +0.031 C 
ATOM     13  C   UNL     1      -2.900   2.442 -21.833  0.00  0.00    +0.016 C 
ATOM     14  C   UNL     1      -0.566   2.473 -22.826  0.00  0.00    +0.039 C 
ATOM     15  C   UNL     1       0.185   3.655 -25.238  0.00  0.00    +0.041 C 
ATOM     16  O   UNL     1      -4.206   4.873 -25.655  0.00  0.00    -0.245 OA
ATOM     17  C   UNL     1      -2.962   3.134 -23.046  0.00  0.00    +0.070 C 
ENDROOT
BRANCH   8  18
ATOM     18  O   UNL     1       2.466   2.650 -24.357  0.00  0.00    -0.387 OA
ATOM     19  H   UNL     1       2.907   3.475 -24.099  0.00  0.00    +0.210 HD
ENDBRANCH   8  18
TORSDOF 1
ENDMDL
MODEL 4
REMARK VINA RESULT:    -9.251      1.808      4.966
REMARK INTER + INTRA:          -9.521
REMARK INTER:                  -9.521
REMARK INTRA:                   0.000
REMARK UNBOUND:                 0.000
REMARK  Name = ZINC000032106796
REMARK  3 active torsions:
REMARK  status: ('A' for Active; 'I' for Inactive)
REMARK    1  A    between atoms: C_8  and  C_9
REMARK    2  A    between atoms: C_10  and  O_11
REMARK    3  A    between atoms: C_14  and  C_15
REMARK                            x       y       z     vdW  Elec       q    Type
REMARK                         _______ _______ _______ _____ _____    ______ ____
ROOT
ATOM      1  C   UNL     1      -5.371   3.470 -22.549  0.00  0.00    +0.020 C 
ATOM      2  C   UNL     1      -4.151   3.070 -22.333  0.00  0.00    +0.036 C 
ATOM      3  C   UNL     1      -3.731   2.429 -21.278  0.00  0.00    +0.336 C 
ATOM      4  O   UNL     1      -2.457   2.201 -21.421  0.00  0.00    -0.453 OA
ATOM      5  C   UNL     1      -2.089   2.701 -22.568  0.00  0.00    +0.207 C 
ATOM      6  C   UNL     1      -1.067   2.734 -23.104  0.00  0.00    +0.019 C 
ATOM      7  C   UNL     1       0.001   2.216 -22.588  0.00  0.00    -0.045 C 
ATOM      8  C   UNL     1       1.199   2.279 -23.264  0.00  0.00    +0.144 C 
ATOM      9  C   UNL     1       1.357   2.891 -24.532  0.00  0.00    +0.063 C 
ATOM     10  C   UNL     1       0.350   3.485 -25.225  0.00  0.00    -0.025 C 
ATOM     11  C   UNL     1      -0.730   3.464 -24.685  0.00  0.00    -0.076 C 
ATOM     12  C   UNL     1      -1.851   3.959 -25.132  0.00  0.00    +0.031 C 
ATOM     13  C   UNL     1      -3.032   3.853 -24.380  0.00  0.00    +0.016 C 
ATOM     14  C   UNL     1      -0.729   2.988 -23.757  0.00  0.00    +0.039 C 
ATOM     15  C   UNL     1      -0.055   1.629 -21.417  0.00  0.00    +0.041 C 
ATOM     16  O   UNL     1      -4.458   2.077 -20.254  0.00  0.00    -0.245 OA
ATOM     17  C   UNL     1      -3.132   3.236 -23.130  0.00  0.00    +0.070 C 
ENDROOT
BRANCH   8  18
ATOM     18  O   UNL     1       2.253   1.740 -22.701  0.00  0.00    -0.387 OA
ATOM     19  H   UNL     1       2.205   0.775 -22.783  0.00  0.00    +0.210 HD
ENDBRANCH   8  18
TORSDOF 1
ENDMDL
MODEL 5
REMARK VINA RESULT:    -8.961      2.439      4.165
REMARK INTER + INTRA:          -9.223
REMARK INTER:                  -9.223
REMARK INTRA:                   0.000
REMARK UNBOUND:                 0.000
REMARK  Name = ZINC000032106796
REMARK  3 active torsions:
REMARK  status: ('A' for Active; 'I' for Inactive)
REMARK    1  A    between atoms: C_8  and  C_9
REMARK    2  A    between atoms: C_10  and  O_11
REMARK    3  A    between atoms: C_14  and  C_15
REMARK                            x       y       z     vdW  Elec       q    Type
REMARK                         _______ _______ _______ _____ _____    ______ ____
ROOT
ATOM      1  C   UNL     1       4.714   2.214 -22.336  0.00  0.00    +0.020 C 
ATOM      2  C   UNL     1       3.436   2.021 -22.184  0.00  0.00    +0.036 C 
ATOM      3  C   UNL     1       2.881   0.999 -21.594  0.00  0.00    +0.336 C 
ATOM      4  O   UNL     1       1.589   1.157 -21.636  0.00  0.00    -0.453 OA
ATOM      5  C   UNL     1       1.345   2.280 -22.254  0.00  0.00    +0.207 C 
ATOM      6  C   UNL     1       0.358   2.817 -22.519  0.00  0.00    +0.019 C 
ATOM      7  C   UNL     1      -0.799   2.329 -22.206  0.00  0.00    -0.045 C 
ATOM      8  C   UNL     1      -1.951   3.006 -22.543  0.00  0.00    +0.144 C 
ATOM      9  C   UNL     1      -1.964   4.243 -23.233  0.00  0.00    +0.063 C 
ATOM     10  C   UNL     1      -0.849   4.903 -23.641  0.00  0.00    -0.025 C 
ATOM     11  C   UNL     1       0.196   4.361 -23.376  0.00  0.00    -0.076 C 
ATOM     12  C   UNL     1       1.401   4.780 -23.652  0.00  0.00    +0.031 C 
ATOM     13  C   UNL     1       2.525   4.031 -23.274  0.00  0.00    +0.016 C 
ATOM     14  C   UNL     1       0.087   3.458 -22.868  0.00  0.00    +0.039 C 
ATOM     15  C   UNL     1      -0.879   1.188 -21.566  0.00  0.00    +0.041 C 
ATOM     16  O   UNL     1       3.507  -0.009 -21.053  0.00  0.00    -0.245 OA
ATOM     17  C   UNL     1       2.482   2.812 -22.591  0.00  0.00    +0.070 C 
ENDROOT
BRANCH   8  18
ATOM     18  O   UNL     1      -3.100   2.473 -22.205  0.00  0.00    -0.387 OA
ATOM     19  H   UNL     1      -3.745   2.618 -22.915  0.00  0.00    +0.210 HD
ENDBRANCH   8  18
TORSDOF 1
ENDMDL
MODEL 6
REMARK VINA RESULT:    -8.936      1.953      5.702
REMARK INTER + INTRA:          -9.197
REMARK INTER:                  -9.197
REMARK INTRA:                   0.000
REMARK UNBOUND:                 0.000
REMARK  Name = ZINC000032106796
REMARK  3 active torsions:
REMARK  status: ('A' for Active; 'I' for Inactive)
REMARK    1  A    between atoms: C_8  and  C_9
REMARK    2  A    between atoms: C_10  and  O_11
REMARK    3  A    between atoms: C_14  and  C_15
REMARK                            x       y       z     vdW  Elec       q    Type
REMARK                         _______ _______ _______ _____ _____    ______ ____
ROOT
ATOM      1  C   UNL     1      -3.224   4.432 -24.824  0.00  0.00    +0.020 C 
ATOM      2  C   UNL     1      -2.460   3.773 -24.002  0.00  0.00    +0.036 C 
ATOM      3  C   UNL     1      -2.842   3.195 -22.898  0.00  0.00    +0.336 C 
ATOM      4  O   UNL     1      -1.801   2.639 -22.348  0.00  0.00    -0.453 OA
ATOM      5  C   UNL     1      -0.772   2.873 -23.115  0.00  0.00    +0.207 C 
ATOM      6  C   UNL     1       0.340   2.577 -23.028  0.00  0.00    +0.019 C 
ATOM      7  C   UNL     1       0.794   1.883 -22.034  0.00  0.00    -0.045 C 
ATOM      8  C   UNL     1       2.130   1.553 -21.972  0.00  0.00    +0.144 C 
ATOM      9  C   UNL     1       3.082   1.932 -22.951  0.00  0.00    +0.063 C 
ATOM     10  C   UNL     1       2.789   2.660 -24.060  0.00  0.00    -0.025 C 
ATOM     11  C   UNL     1       1.631   2.981 -24.175  0.00  0.00    -0.076 C 
ATOM     12  C   UNL     1       1.092   3.676 -25.138  0.00  0.00    +0.031 C 
ATOM     13  C   UNL     1      -0.280   3.970 -25.129  0.00  0.00    +0.016 C 
ATOM     14  C   UNL     1       1.021   2.649 -23.397  0.00  0.00    +0.039 C 
ATOM     15  C   UNL     1      -0.018   1.491 -21.083  0.00  0.00    +0.041 C 
ATOM     16  O   UNL     1      -4.056   3.175 -22.421  0.00  0.00    -0.245 OA
ATOM     17  C   UNL     1      -1.178   3.571 -24.134  0.00  0.00    +0.070 C 
ENDROOT
BRANCH   8  18
ATOM     18  O   UNL     1       2.544   0.849 -20.946  0.00  0.00    -0.387 OA
ATOM     19  H   UNL     1       2.778   1.446 -20.218  0.00  0.00    +0.210 HD
ENDBRANCH   8  18
TORSDOF 1
ENDMDL
MODEL 7
REMARK VINA RESULT:    -8.239      2.254      3.913
REMARK INTER + INTRA:          -8.479
REMARK INTER:                  -8.479
REMARK INTRA:                   0.000
REMARK UNBOUND:                 0.000
REMARK  Name = ZINC000032106796
REMARK  3 active torsions:
REMARK  status: ('A' for Active; 'I' for Inactive)
REMARK    1  A    between atoms: C_8  and  C_9
REMARK    2  A    between atoms: C_10  and  O_11
REMARK    3  A    between atoms: C_14  and  C_15
REMARK                            x       y       z     vdW  Elec       q    Type
REMARK                         _______ _______ _______ _____ _____    ______ ____
ROOT
ATOM      1  C   UNL     1      -3.921   2.980 -19.881  0.00  0.00    +0.020 C 
ATOM      2  C   UNL     1      -4.041   3.057 -21.175  0.00  0.00    +0.036 C 
ATOM      3  C   UNL     1      -5.159   3.002 -21.844  0.00  0.00    +0.336 C 
ATOM      4  O   UNL     1      -4.880   3.112 -23.111  0.00  0.00    -0.453 OA
ATOM      5  C   UNL     1      -3.586   3.236 -23.225  0.00  0.00    +0.207 C 
ATOM      6  C   UNL     1      -2.900   3.359 -24.146  0.00  0.00    +0.019 C 
ATOM      7  C   UNL     1      -3.364   3.399 -25.353  0.00  0.00    -0.045 C 
ATOM      8  C   UNL     1      -2.507   3.548 -26.421  0.00  0.00    +0.144 C 
ATOM      9  C   UNL     1      -1.101   3.665 -26.292  0.00  0.00    +0.063 C 
ATOM     10  C   UNL     1      -0.437   3.644 -25.106  0.00  0.00    -0.025 C 
ATOM     11  C   UNL     1      -1.134   3.516 -24.129  0.00  0.00    -0.076 C 
ATOM     12  C   UNL     1      -0.751   3.466 -22.883  0.00  0.00    +0.031 C 
ATOM     13  C   UNL     1      -1.688   3.313 -21.850  0.00  0.00    +0.016 C 
ATOM     14  C   UNL     1      -2.151   3.439 -24.341  0.00  0.00    +0.039 C 
ATOM     15  C   UNL     1      -4.654   3.298 -25.563  0.00  0.00    +0.041 C 
ATOM     16  O   UNL     1      -6.352   2.861 -21.337  0.00  0.00    -0.245 OA
ATOM     17  C   UNL     1      -3.070   3.201 -22.033  0.00  0.00    +0.070 C 
ENDROOT
BRANCH   8  18
ATOM     18  O   UNL     1      -3.024   3.583 -27.625  0.00  0.00    -0.387 OA
ATOM     19  H   UNL     1      -3.755   4.221 -27.645  0.00  0.00    +0.210 HD
ENDBRANCH   8  18
TORSDOF 1
ENDMDL
