MODEL 1
REMARK VINA RESULT:   -12.107      0.000      0.000
REMARK INTER + INTRA:         -12.461
REMARK INTER:                 -12.461
REMARK INTRA:                   0.000
REMARK UNBOUND:                 0.000
REMARK  Name = ZINC000004104753
REMARK  3 active torsions:
REMARK  status: ('A' for Active; 'I' for Inactive)
REMARK    1  A    between atoms: C_1  and  C_2
REMARK    2  A    between atoms: C_16  and  C_17
REMARK    3  A    between atoms: C_21  and  O_22
REMARK                            x       y       z     vdW  Elec       q    Type
REMARK                         _______ _______ _______ _____ _____    ______ ____
ROOT
ATOM      1  C   UNL     1      -4.927   3.137 -21.944  0.00  0.00    +0.014 C 
ATOM      2  C   UNL     1      -4.010   3.319 -22.846  0.00  0.00    -0.003 C 
ATOM      3  C   UNL     1      -3.578   2.750 -21.760  0.00  0.00    +0.010 C 
ATOM      4  C   UNL     1      -2.325   2.419 -21.653  0.00  0.00    +0.005 C 
ATOM      5  C   UNL     1      -1.504   2.657 -22.633  0.00  0.00    -0.001 C 
ATOM      6  C   UNL     1      -1.936   3.226 -23.719  0.00  0.00    +0.003 C 
ATOM      7  C   UNL     1      -1.116   3.464 -24.699  0.00  0.00    +0.078 C 
ATOM      8  C   UNL     1       0.137   3.133 -24.592  0.00  0.00    +0.138 C 
ATOM      9  C   UNL     1       0.569   2.564 -23.506  0.00  0.00    +0.068 C 
ATOM     10  C   UNL     1       1.821   2.233 -23.399  0.00  0.00    +0.086 C 
ATOM     11  C   UNL     1       2.253   1.665 -22.313  0.00  0.00    +0.134 C 
ATOM     12  C   UNL     1       1.433   1.427 -21.333  0.00  0.00    +0.075 C 
ATOM     13  C   UNL     1       0.180   1.757 -21.439  0.00  0.00    +0.015 C 
ATOM     14  O   UNL     1       3.506   1.334 -22.206  0.00  0.00    -0.297 OA
ATOM     15  O   UNL     1       0.958   3.371 -25.572  0.00  0.00    -0.297 OA
ATOM     16  C   UNL     1      -0.252   2.327 -22.526  0.00  0.00    -0.019 C 
ATOM     17  C   UNL     1      -1.073   2.089 -21.546  0.00  0.00    +0.012 C 
ATOM     18  C   UNL     1      -5.188   3.739 -23.199  0.00  0.00    +0.121 C 
ATOM     19  C   UNL     1      -5.096   4.237 -24.396  0.00  0.00    +0.032 C 
ATOM     20  C   UNL     1      -3.861   4.124 -24.784  0.00  0.00    +0.007 C 
ATOM     21  C   UNL     1      -3.189   3.557 -23.826  0.00  0.00    +0.001 C 
ENDROOT
BRANCH  18  22
ATOM     22  O   UNL     1      -6.270   3.674 -22.480  0.00  0.00    -0.391 OA
ATOM     23  H   UNL     1      -6.245   2.875 -21.931  0.00  0.00    +0.210 HD
ENDBRANCH  18  22
TORSDOF 1
ENDMDL
MODEL 2
REMARK VINA RESULT:   -12.097      1.085      2.676
REMARK INTER + INTRA:         -12.451
REMARK INTER:                 -12.451
REMARK INTRA:                   0.000
REMARK UNBOUND:                 0.000
REMARK  Name = ZINC000004104753
REMARK  3 active torsions:
REMARK  status: ('A' for Active; 'I' for Inactive)
REMARK    1  A    between atoms: C_1  and  C_2
REMARK    2  A    between atoms: C_16  and  C_17
REMARK    3  A    between atoms: C_21  and  O_22
REMARK                            x       y       z     vdW  Elec       q    Type
REMARK                         _______ _______ _______ _____ _____    ______ ____
ROOT
ATOM      1  C   UNL     1      -4.648   3.843 -23.864  0.00  0.00    +0.014 C 
ATOM      2  C   UNL     1      -3.810   3.307 -23.027  0.00  0.00    -0.003 C 
ATOM      3  C   UNL     1      -3.272   3.676 -24.152  0.00  0.00    +0.010 C 
ATOM      4  C   UNL     1      -2.000   3.495 -24.354  0.00  0.00    +0.005 C 
ATOM      5  C   UNL     1      -1.268   2.945 -23.432  0.00  0.00    -0.001 C 
ATOM      6  C   UNL     1      -1.806   2.576 -22.308  0.00  0.00    +0.003 C 
ATOM      7  C   UNL     1      -1.073   2.025 -21.386  0.00  0.00    +0.078 C 
ATOM      8  C   UNL     1       0.198   1.844 -21.588  0.00  0.00    +0.138 C 
ATOM      9  C   UNL     1       0.737   2.213 -22.713  0.00  0.00    +0.068 C 
ATOM     10  C   UNL     1       2.008   2.031 -22.915  0.00  0.00    +0.086 C 
ATOM     11  C   UNL     1       2.546   2.400 -24.040  0.00  0.00    +0.134 C 
ATOM     12  C   UNL     1       1.813   2.951 -24.962  0.00  0.00    +0.075 C 
ATOM     13  C   UNL     1       0.542   3.132 -24.760  0.00  0.00    +0.015 C 
ATOM     14  O   UNL     1       3.817   2.219 -24.242  0.00  0.00    -0.297 OA
ATOM     15  O   UNL     1       0.931   1.294 -20.667  0.00  0.00    -0.297 OA
ATOM     16  C   UNL     1       0.003   2.763 -23.635  0.00  0.00    -0.019 C 
ATOM     17  C   UNL     1      -0.730   3.313 -24.557  0.00  0.00    +0.012 C 
ATOM     18  C   UNL     1      -5.030   3.374 -22.583  0.00  0.00    +0.121 C 
ATOM     19  C   UNL     1      -5.051   2.866 -21.387  0.00  0.00    +0.032 C 
ATOM     20  C   UNL     1      -3.845   2.484 -21.092  0.00  0.00    +0.007 C 
ATOM     21  C   UNL     1      -3.077   2.757 -22.105  0.00  0.00    +0.001 C 
ENDROOT
BRANCH  18  22
ATOM     22  O   UNL     1      -6.051   3.864 -23.223  0.00  0.00    -0.391 OA
ATOM     23  H   UNL     1      -6.207   4.776 -22.931  0.00  0.00    +0.210 HD
ENDBRANCH  18  22
TORSDOF 1
ENDMDL
MODEL 3
REMARK VINA RESULT:   -11.467      1.192      5.519
REMARK INTER + INTRA:         -11.802
REMARK INTER:                 -11.802
REMARK INTRA:                   0.000
REMARK UNBOUND:                 0.000
REMARK  Name = ZINC000004104753
REMARK  3 active torsions:
REMARK  status: ('A' for Active; 'I' for Inactive)
REMARK    1  A    between atoms: C_1  and  C_2
REMARK    2  A    between atoms: C_16  and  C_17
REMARK    3  A    between atoms: C_21  and  O_22
REMARK                            x       y       z     vdW  Elec       q    Type
REMARK                         _______ _______ _______ _____ _____    ______ ____
ROOT
ATOM      1  C   UNL     1       2.128   1.495 -22.011  0.00  0.00    +0.014 C 
ATOM      2  C   UNL     1       1.335   2.021 -22.896  0.00  0.00    -0.003 C 
ATOM      3  C   UNL     1       0.750   1.713 -21.776  0.00  0.00    +0.010 C 
ATOM      4  C   UNL     1      -0.522   1.939 -21.623  0.00  0.00    +0.005 C 
ATOM      5  C   UNL     1      -1.207   2.474 -22.590  0.00  0.00    -0.001 C 
ATOM      6  C   UNL     1      -0.622   2.782 -23.709  0.00  0.00    +0.003 C 
ATOM      7  C   UNL     1      -1.308   3.317 -24.676  0.00  0.00    +0.078 C 
ATOM      8  C   UNL     1      -2.578   3.543 -24.523  0.00  0.00    +0.138 C 
ATOM      9  C   UNL     1      -3.164   3.235 -23.404  0.00  0.00    +0.068 C 
ATOM     10  C   UNL     1      -4.435   3.461 -23.251  0.00  0.00    +0.086 C 
ATOM     11  C   UNL     1      -5.020   3.153 -22.132  0.00  0.00    +0.134 C 
ATOM     12  C   UNL     1      -4.334   2.618 -21.166  0.00  0.00    +0.075 C 
ATOM     13  C   UNL     1      -3.064   2.392 -21.318  0.00  0.00    +0.015 C 
ATOM     14  O   UNL     1      -6.291   3.379 -21.979  0.00  0.00    -0.297 OA
ATOM     15  O   UNL     1      -3.264   4.078 -25.489  0.00  0.00    -0.297 OA
ATOM     16  C   UNL     1      -2.478   2.700 -22.438  0.00  0.00    -0.019 C 
ATOM     17  C   UNL     1      -1.792   2.166 -21.471  0.00  0.00    +0.012 C 
ATOM     18  C   UNL     1       2.566   1.901 -23.295  0.00  0.00    +0.121 C 
ATOM     19  C   UNL     1       2.641   2.362 -24.509  0.00  0.00    +0.032 C 
ATOM     20  C   UNL     1       1.457   2.766 -24.859  0.00  0.00    +0.007 C 
ATOM     21  C   UNL     1       0.649   2.556 -23.862  0.00  0.00    +0.001 C 
ENDROOT
BRANCH  18  22
ATOM     22  O   UNL     1       3.550   1.408 -22.603  0.00  0.00    -0.391 OA
ATOM     23  H   UNL     1       3.205   1.013 -21.788  0.00  0.00    +0.210 HD
ENDBRANCH  18  22
TORSDOF 1
ENDMDL
MODEL 4
REMARK VINA RESULT:   -10.638      1.303      6.197
REMARK INTER + INTRA:         -10.949
REMARK INTER:                 -10.949
REMARK INTRA:                   0.000
REMARK UNBOUND:                 0.000
REMARK  Name = ZINC000004104753
REMARK  3 active torsions:
REMARK  status: ('A' for Active; 'I' for Inactive)
REMARK    1  A    between atoms: C_1  and  C_2
REMARK    2  A    between atoms: C_16  and  C_17
REMARK    3  A    between atoms: C_21  and  O_22
REMARK                            x       y       z     vdW  Elec       q    Type
REMARK                         _______ _______ _______ _____ _____    ______ ____
ROOT
ATOM      1  C   UNL     1       2.876   2.371 -24.457  0.00  0.00    +0.014 C 
ATOM      2  C   UNL     1       1.947   2.222 -23.560  0.00  0.00    -0.003 C 
ATOM      3  C   UNL     1       1.533   2.769 -24.664  0.00  0.00    +0.010 C 
ATOM      4  C   UNL     1       0.286   3.113 -24.791  0.00  0.00    +0.005 C 
ATOM      5  C   UNL     1      -0.548   2.908 -23.815  0.00  0.00    -0.001 C 
ATOM      6  C   UNL     1      -0.134   2.361 -22.711  0.00  0.00    +0.003 C 
ATOM      7  C   UNL     1      -0.967   2.156 -21.734  0.00  0.00    +0.078 C 
ATOM      8  C   UNL     1      -2.214   2.499 -21.861  0.00  0.00    +0.138 C 
ATOM      9  C   UNL     1      -2.628   3.047 -22.966  0.00  0.00    +0.068 C 
ATOM     10  C   UNL     1      -3.875   3.390 -23.093  0.00  0.00    +0.086 C 
ATOM     11  C   UNL     1      -4.289   3.938 -24.197  0.00  0.00    +0.134 C 
ATOM     12  C   UNL     1      -3.456   4.142 -25.173  0.00  0.00    +0.075 C 
ATOM     13  C   UNL     1      -2.209   3.799 -25.046  0.00  0.00    +0.015 C 
ATOM     14  O   UNL     1      -5.537   4.281 -24.324  0.00  0.00    -0.297 OA
ATOM     15  O   UNL     1      -3.048   2.295 -20.885  0.00  0.00    -0.297 OA
ATOM     16  C   UNL     1      -1.794   3.251 -23.942  0.00  0.00    -0.019 C 
ATOM     17  C   UNL     1      -0.961   3.456 -24.919  0.00  0.00    +0.012 C 
ATOM     18  C   UNL     1       3.117   1.795 -23.185  0.00  0.00    +0.121 C 
ATOM     19  C   UNL     1       3.007   1.328 -21.977  0.00  0.00    +0.032 C 
ATOM     20  C   UNL     1       1.769   1.465 -21.605  0.00  0.00    +0.007 C 
ATOM     21  C   UNL     1       1.114   2.017 -22.583  0.00  0.00    +0.001 C 
ENDROOT
BRANCH  18  22
ATOM     22  O   UNL     1       4.207   1.830 -23.894  0.00  0.00    -0.391 OA
ATOM     23  H   UNL     1       4.873   1.252 -23.491  0.00  0.00    +0.210 HD
ENDBRANCH  18  22
TORSDOF 1
ENDMDL
MODEL 5
REMARK VINA RESULT:   -10.343      1.981      3.920
REMARK INTER + INTRA:         -10.645
REMARK INTER:                 -10.645
REMARK INTRA:                   0.000
REMARK UNBOUND:                 0.000
REMARK  Name = ZINC000004104753
REMARK  3 active torsions:
REMARK  status: ('A' for Active; 'I' for Inactive)
REMARK    1  A    between atoms: C_1  and  C_2
REMARK    2  A    between atoms: C_16  and  C_17
REMARK    3  A    between atoms: C_21  and  O_22
REMARK                            x       y       z     vdW  Elec       q    Type
REMARK                         _______ _______ _______ _____ _____    ______ ____
ROOT
ATOM      1  C   UNL     1      -1.655   4.446 -23.687  0.00  0.00    +0.014 C 
ATOM      2  C   UNL     1      -1.018   3.540 -23.006  0.00  0.00    -0.003 C 
ATOM      3  C   UNL     1      -0.242   4.369 -23.638  0.00  0.00    +0.010 C 
ATOM      4  C   UNL     1       1.049   4.245 -23.553  0.00  0.00    +0.005 C 
ATOM      5  C   UNL     1       1.564   3.291 -22.835  0.00  0.00    -0.001 C 
ATOM      6  C   UNL     1       0.788   2.462 -22.203  0.00  0.00    +0.003 C 
ATOM      7  C   UNL     1       1.303   1.508 -21.484  0.00  0.00    +0.078 C 
ATOM      8  C   UNL     1       2.593   1.384 -21.399  0.00  0.00    +0.138 C 
ATOM      9  C   UNL     1       3.370   2.213 -22.032  0.00  0.00    +0.068 C 
ATOM     10  C   UNL     1       4.661   2.088 -21.946  0.00  0.00    +0.086 C 
ATOM     11  C   UNL     1       5.437   2.917 -22.578  0.00  0.00    +0.134 C 
ATOM     12  C   UNL     1       4.923   3.871 -23.296  0.00  0.00    +0.075 C 
ATOM     13  C   UNL     1       3.632   3.996 -23.382  0.00  0.00    +0.015 C 
ATOM     14  O   UNL     1       6.729   2.793 -22.493  0.00  0.00    -0.297 OA
ATOM     15  O   UNL     1       3.109   0.430 -20.681  0.00  0.00    -0.297 OA
ATOM     16  C   UNL     1       2.855   3.166 -22.749  0.00  0.00    -0.019 C 
ATOM     17  C   UNL     1       2.340   4.120 -23.467  0.00  0.00    +0.012 C 
ATOM     18  C   UNL     1      -2.313   3.448 -22.927  0.00  0.00    +0.121 C 
ATOM     19  C   UNL     1      -2.598   2.437 -22.161  0.00  0.00    +0.032 C 
ATOM     20  C   UNL     1      -1.480   1.905 -21.766  0.00  0.00    +0.007 C 
ATOM     21  C   UNL     1      -0.504   2.586 -22.288  0.00  0.00    +0.001 C 
ENDROOT
BRANCH  18  22
ATOM     22  O   UNL     1      -3.172   4.229 -23.513  0.00  0.00    -0.391 OA
ATOM     23  H   UNL     1      -3.303   3.936 -24.428  0.00  0.00    +0.210 HD
ENDBRANCH  18  22
TORSDOF 1
ENDMDL
MODEL 6
REMARK VINA RESULT:    -9.819      2.163      6.781
REMARK INTER + INTRA:         -10.106
REMARK INTER:                 -10.106
REMARK INTRA:                   0.000
REMARK UNBOUND:                 0.000
REMARK  Name = ZINC000004104753
REMARK  3 active torsions:
REMARK  status: ('A' for Active; 'I' for Inactive)
REMARK    1  A    between atoms: C_1  and  C_2
REMARK    2  A    between atoms: C_16  and  C_17
REMARK    3  A    between atoms: C_21  and  O_22
REMARK                            x       y       z     vdW  Elec       q    Type
REMARK                         _______ _______ _______ _____ _____    ______ ____
ROOT
ATOM      1  C   UNL     1       5.034   2.139 -23.306  0.00  0.00    +0.014 C 
ATOM      2  C   UNL     1       3.927   1.826 -22.700  0.00  0.00    -0.003 C 
ATOM      3  C   UNL     1       3.757   2.498 -23.800  0.00  0.00    +0.010 C 
ATOM      4  C   UNL     1       2.556   2.796 -24.200  0.00  0.00    +0.005 C 
ATOM      5  C   UNL     1       1.526   2.422 -23.500  0.00  0.00    -0.001 C 
ATOM      6  C   UNL     1       1.697   1.750 -22.400  0.00  0.00    +0.003 C 
ATOM      7  C   UNL     1       0.668   1.377 -21.700  0.00  0.00    +0.078 C 
ATOM      8  C   UNL     1      -0.533   1.674 -22.099  0.00  0.00    +0.138 C 
ATOM      9  C   UNL     1      -0.704   2.346 -23.200  0.00  0.00    +0.068 C 
ATOM     10  C   UNL     1      -1.904   2.644 -23.599  0.00  0.00    +0.086 C 
ATOM     11  C   UNL     1      -2.075   3.316 -24.699  0.00  0.00    +0.134 C 
ATOM     12  C   UNL     1      -1.045   3.690 -25.399  0.00  0.00    +0.075 C 
ATOM     13  C   UNL     1       0.155   3.392 -25.000  0.00  0.00    +0.015 C 
ATOM     14  O   UNL     1      -3.276   3.614 -25.099  0.00  0.00    -0.297 OA
ATOM     15  O   UNL     1      -1.563   1.301 -21.400  0.00  0.00    -0.297 OA
ATOM     16  C   UNL     1       0.326   2.720 -23.899  0.00  0.00    -0.019 C 
ATOM     17  C   UNL     1       1.356   3.094 -24.600  0.00  0.00    +0.012 C 
ATOM     18  C   UNL     1       4.999   1.409 -22.093  0.00  0.00    +0.121 C 
ATOM     19  C   UNL     1       4.631   0.777 -21.018  0.00  0.00    +0.032 C 
ATOM     20  C   UNL     1       3.333   0.804 -20.960  0.00  0.00    +0.007 C 
ATOM     21  C   UNL     1       2.898   1.452 -22.000  0.00  0.00    +0.001 C 
ENDROOT
BRANCH  18  22
ATOM     22  O   UNL     1       6.223   1.591 -22.491  0.00  0.00    -0.391 OA
ATOM     23  H   UNL     1       6.228   2.187 -23.256  0.00  0.00    +0.210 HD
ENDBRANCH  18  22
TORSDOF 1
ENDMDL
MODEL 7
REMARK VINA RESULT:    -9.340      1.803      2.789
REMARK INTER + INTRA:          -9.613
REMARK INTER:                  -9.613
REMARK INTRA:                   0.000
REMARK UNBOUND:                 0.000
REMARK  Name = ZINC000004104753
REMARK  3 active torsions:
REMARK  status: ('A' for Active; 'I' for Inactive)
REMARK    1  A    between atoms: C_1  and  C_2
REMARK    2  A    between atoms: C_16  and  C_17
REMARK    3  A    between atoms: C_21  and  O_22
REMARK                            x       y       z     vdW  Elec       q    Type
REMARK                         _______ _______ _______ _____ _____    ______ ____
ROOT
ATOM      1  C   UNL     1      -2.483   2.299 -22.150  0.00  0.00    +0.014 C 
ATOM      2  C   UNL     1      -1.456   2.984 -22.555  0.00  0.00    -0.003 C 
ATOM      3  C   UNL     1      -1.149   1.859 -21.981  0.00  0.00    +0.010 C 
ATOM      4  C   UNL     1       0.098   1.510 -21.856  0.00  0.00    +0.005 C 
ATOM      5  C   UNL     1       1.037   2.288 -22.306  0.00  0.00    -0.001 C 
ATOM      6  C   UNL     1       0.731   3.413 -22.881  0.00  0.00    +0.003 C 
ATOM      7  C   UNL     1       1.670   4.190 -23.331  0.00  0.00    +0.078 C 
ATOM      8  C   UNL     1       2.916   3.843 -23.207  0.00  0.00    +0.138 C 
ATOM      9  C   UNL     1       3.224   2.717 -22.632  0.00  0.00    +0.068 C 
ATOM     10  C   UNL     1       4.470   2.370 -22.508  0.00  0.00    +0.086 C 
ATOM     11  C   UNL     1       4.776   1.245 -21.933  0.00  0.00    +0.134 C 
ATOM     12  C   UNL     1       3.837   0.467 -21.483  0.00  0.00    +0.075 C 
ATOM     13  C   UNL     1       2.590   0.815 -21.607  0.00  0.00    +0.015 C 
ATOM     14  O   UNL     1       6.023   0.896 -21.809  0.00  0.00    -0.297 OA
ATOM     15  O   UNL     1       3.857   4.620 -23.657  0.00  0.00    -0.297 OA
ATOM     16  C   UNL     1       2.283   1.940 -22.182  0.00  0.00    -0.019 C 
ATOM     17  C   UNL     1       1.344   1.163 -21.732  0.00  0.00    +0.012 C 
ATOM     18  C   UNL     1      -2.599   3.552 -22.800  0.00  0.00    +0.121 C 
ATOM     19  C   UNL     1      -2.365   4.681 -23.402  0.00  0.00    +0.032 C 
ATOM     20  C   UNL     1      -1.079   4.810 -23.528  0.00  0.00    +0.007 C 
ATOM     21  C   UNL     1      -0.516   3.761 -23.006  0.00  0.00    +0.001 C 
ENDROOT
BRANCH  18  22
ATOM     22  O   UNL     1      -3.770   3.076 -22.497  0.00  0.00    -0.391 OA
ATOM     23  H   UNL     1      -3.752   2.728 -21.592  0.00  0.00    +0.210 HD
ENDBRANCH  18  22
TORSDOF 1
ENDMDL
