MODEL 1
REMARK VINA RESULT:    -9.768      0.000      0.000
REMARK INTER + INTRA:          -9.768
REMARK INTER:                  -9.768
REMARK INTRA:                   0.000
REMARK UNBOUND:                 0.000
REMARK  Name = ZINC000043162900
REMARK  2 active torsions:
REMARK  status: ('A' for Active; 'I' for Inactive)
REMARK    1  A    between atoms: C_9  and  C_10
REMARK    2  A    between atoms: C_14  and  C_15
REMARK                            x       y       z     vdW  Elec       q    Type
REMARK                         _______ _______ _______ _____ _____    ______ ____
ROOT
ATOM      1  C   UNL     1       0.176   2.618 -24.419  0.00  0.00    +0.020 C 
ATOM      2  C   UNL     1      -0.403   2.549 -23.257  0.00  0.00    +0.036 C 
ATOM      3  C   UNL     1       0.177   2.253 -22.131  0.00  0.00    +0.335 C 
ATOM      4  O   UNL     1      -0.724   2.285 -21.195  0.00  0.00    -0.455 OA
ATOM      5  C   UNL     1      -1.861   2.601 -21.742  0.00  0.00    +0.216 C 
ATOM      6  C   UNL     1      -3.051   2.761 -21.244  0.00  0.00    +0.192 C 
ATOM      7  O   UNL     1      -4.241   2.922 -20.747  0.00  0.00    -0.361 OA
ATOM      8  C   UNL     1      -4.042   3.085 -22.021  0.00  0.00    +0.097 C 
ATOM      9  C   UNL     1      -3.842   3.248 -23.294  0.00  0.00    +0.041 C 
ATOM     10  C   UNL     1      -4.834   3.572 -24.072  0.00  0.00    +0.030 C 
ATOM     11  C   UNL     1      -4.634   3.736 -25.346  0.00  0.00    -0.028 C 
ATOM     12  C   UNL     1      -3.444   3.575 -25.843  0.00  0.00    -0.077 C 
ATOM     13  C   UNL     1      -2.453   3.252 -25.067  0.00  0.00    +0.031 C 
ATOM     14  C   UNL     1      -2.652   3.088 -23.792  0.00  0.00    +0.016 C 
ATOM     15  C   UNL     1      -3.245   3.739 -27.117  0.00  0.00    +0.039 C 
ATOM     16  C   UNL     1      -5.301   3.365 -22.182  0.00  0.00    +0.044 C 
ATOM     17  O   UNL     1       1.436   1.973 -21.970  0.00  0.00    -0.245 OA
ATOM     18  C   UNL     1      -1.661   2.764 -23.016  0.00  0.00    +0.069 C 
ENDROOT
TORSDOF 0
ENDMDL
MODEL 2
REMARK VINA RESULT:    -9.753      1.928      3.499
REMARK INTER + INTRA:          -9.753
REMARK INTER:                  -9.753
REMARK INTRA:                   0.000
REMARK UNBOUND:                 0.000
REMARK  Name = ZINC000043162900
REMARK  2 active torsions:
REMARK  status: ('A' for Active; 'I' for Inactive)
REMARK    1  A    between atoms: C_9  and  C_10
REMARK    2  A    between atoms: C_14  and  C_15
REMARK                            x       y       z     vdW  Elec       q    Type
REMARK                         _______ _______ _______ _____ _____    ______ ____
ROOT
ATOM      1  C   UNL     1      -0.231   2.274 -22.323  0.00  0.00    +0.020 C 
ATOM      2  C   UNL     1      -0.598   2.775 -23.466  0.00  0.00    +0.036 C 
ATOM      3  C   UNL     1       0.176   2.991 -24.488  0.00  0.00    +0.335 C 
ATOM      4  O   UNL     1      -0.549   3.497 -25.441  0.00  0.00    -0.455 OA
ATOM      5  C   UNL     1      -1.771   3.593 -25.008  0.00  0.00    +0.216 C 
ATOM      6  C   UNL     1      -2.861   4.029 -25.567  0.00  0.00    +0.192 C 
ATOM      7  O   UNL     1      -3.950   4.465 -26.126  0.00  0.00    -0.361 OA
ATOM      8  C   UNL     1      -3.980   4.019 -24.906  0.00  0.00    +0.097 C 
ATOM      9  C   UNL     1      -4.009   3.573 -23.685  0.00  0.00    +0.041 C 
ATOM     10  C   UNL     1      -5.128   3.562 -23.023  0.00  0.00    +0.030 C 
ATOM     11  C   UNL     1      -5.158   3.116 -21.803  0.00  0.00    -0.028 C 
ATOM     12  C   UNL     1      -4.068   2.680 -21.244  0.00  0.00    -0.077 C 
ATOM     13  C   UNL     1      -2.949   2.690 -21.905  0.00  0.00    +0.031 C 
ATOM     14  C   UNL     1      -2.920   3.136 -23.126  0.00  0.00    +0.016 C 
ATOM     15  C   UNL     1      -4.098   2.234 -20.023  0.00  0.00    +0.039 C 
ATOM     16  C   UNL     1      -5.255   4.265 -24.846  0.00  0.00    +0.044 C 
ATOM     17  O   UNL     1       1.451   2.746 -24.548  0.00  0.00    -0.245 OA
ATOM     18  C   UNL     1      -1.801   3.147 -23.787  0.00  0.00    +0.069 C 
ENDROOT
TORSDOF 0
ENDMDL
MODEL 3
REMARK VINA RESULT:    -9.110      2.356      4.129
REMARK INTER + INTRA:          -9.110
REMARK INTER:                  -9.110
REMARK INTRA:                   0.000
REMARK UNBOUND:                 0.000
REMARK  Name = ZINC000043162900
REMARK  2 active torsions:
REMARK  status: ('A' for Active; 'I' for Inactive)
REMARK    1  A    between atoms: C_9  and  C_10
REMARK    2  A    between atoms: C_14  and  C_15
REMARK                            x       y       z     vdW  Elec       q    Type
REMARK                         _______ _______ _______ _____ _____    ______ ____
ROOT
ATOM      1  C   UNL     1      -1.552   3.451 -25.948  0.00  0.00    +0.020 C 
ATOM      2  C   UNL     1      -2.771   3.636 -25.536  0.00  0.00    +0.036 C 
ATOM      3  C   UNL     1      -3.771   4.036 -26.264  0.00  0.00    +0.335 C 
ATOM      4  O   UNL     1      -4.823   4.100 -25.502  0.00  0.00    -0.455 OA
ATOM      5  C   UNL     1      -4.472   3.739 -24.303  0.00  0.00    +0.216 C 
ATOM      6  C   UNL     1      -5.144   3.635 -23.195  0.00  0.00    +0.192 C 
ATOM      7  O   UNL     1      -5.815   3.530 -22.087  0.00  0.00    -0.361 OA
ATOM      8  C   UNL     1      -4.548   3.244 -22.109  0.00  0.00    +0.097 C 
ATOM      9  C   UNL     1      -3.280   2.957 -22.130  0.00  0.00    +0.041 C 
ATOM     10  C   UNL     1      -2.683   2.565 -21.043  0.00  0.00    +0.030 C 
ATOM     11  C   UNL     1      -1.416   2.278 -21.064  0.00  0.00    -0.028 C 
ATOM     12  C   UNL     1      -0.744   2.383 -22.173  0.00  0.00    -0.077 C 
ATOM     13  C   UNL     1      -1.340   2.774 -23.259  0.00  0.00    +0.031 C 
ATOM     14  C   UNL     1      -2.609   3.061 -23.238  0.00  0.00    +0.016 C 
ATOM     15  C   UNL     1       0.523   2.096 -22.194  0.00  0.00    +0.039 C 
ATOM     16  C   UNL     1      -4.591   2.957 -20.841  0.00  0.00    +0.044 C 
ATOM     17  O   UNL     1      -3.728   4.322 -27.531  0.00  0.00    -0.245 OA
ATOM     18  C   UNL     1      -3.205   3.452 -24.325  0.00  0.00    +0.069 C 
ENDROOT
TORSDOF 0
ENDMDL
MODEL 4
REMARK VINA RESULT:    -8.723      2.697      4.407
REMARK INTER + INTRA:          -8.723
REMARK INTER:                  -8.723
REMARK INTRA:                   0.000
REMARK UNBOUND:                 0.000
REMARK  Name = ZINC000043162900
REMARK  2 active torsions:
REMARK  status: ('A' for Active; 'I' for Inactive)
REMARK    1  A    between atoms: C_9  and  C_10
REMARK    2  A    between atoms: C_14  and  C_15
REMARK                            x       y       z     vdW  Elec       q    Type
REMARK                         _______ _______ _______ _____ _____    ______ ____
ROOT
ATOM      1  C   UNL     1       0.656   1.444 -20.396  0.00  0.00    +0.020 C 
ATOM      2  C   UNL     1       1.335   1.506 -21.504  0.00  0.00    +0.036 C 
ATOM      3  C   UNL     1       2.509   0.986 -21.710  0.00  0.00    +0.335 C 
ATOM      4  O   UNL     1       2.859   1.256 -22.932  0.00  0.00    -0.455 OA
ATOM      5  C   UNL     1       1.901   1.943 -23.481  0.00  0.00    +0.216 C 
ATOM      6  C   UNL     1       1.765   2.448 -24.672  0.00  0.00    +0.192 C 
ATOM      7  O   UNL     1       1.629   2.952 -25.862  0.00  0.00    -0.361 OA
ATOM      8  C   UNL     1       0.688   3.106 -24.979  0.00  0.00    +0.097 C 
ATOM      9  C   UNL     1      -0.254   3.260 -24.096  0.00  0.00    +0.041 C 
ATOM     10  C   UNL     1      -1.332   3.919 -24.403  0.00  0.00    +0.030 C 
ATOM     11  C   UNL     1      -2.273   4.073 -23.520  0.00  0.00    -0.028 C 
ATOM     12  C   UNL     1      -2.137   3.568 -22.330  0.00  0.00    -0.077 C 
ATOM     13  C   UNL     1      -1.060   2.909 -22.022  0.00  0.00    +0.031 C 
ATOM     14  C   UNL     1      -0.118   2.755 -22.906  0.00  0.00    +0.016 C 
ATOM     15  C   UNL     1      -3.079   3.722 -21.447  0.00  0.00    +0.039 C 
ATOM     16  C   UNL     1      -0.013   3.778 -25.843  0.00  0.00    +0.044 C 
ATOM     17  O   UNL     1       3.210   0.315 -20.845  0.00  0.00    -0.245 OA
ATOM     18  C   UNL     1       0.960   2.097 -22.598  0.00  0.00    +0.069 C 
ENDROOT
TORSDOF 0
ENDMDL
MODEL 5
REMARK VINA RESULT:    -8.624      1.421      4.366
REMARK INTER + INTRA:          -8.624
REMARK INTER:                  -8.624
REMARK INTRA:                   0.000
REMARK UNBOUND:                 0.000
REMARK  Name = ZINC000043162900
REMARK  2 active torsions:
REMARK  status: ('A' for Active; 'I' for Inactive)
REMARK    1  A    between atoms: C_9  and  C_10
REMARK    2  A    between atoms: C_14  and  C_15
REMARK                            x       y       z     vdW  Elec       q    Type
REMARK                         _______ _______ _______ _____ _____    ______ ____
ROOT
ATOM      1  C   UNL     1      -2.991   4.175 -24.409  0.00  0.00    +0.020 C 
ATOM      2  C   UNL     1      -2.838   3.444 -23.345  0.00  0.00    +0.036 C 
ATOM      3  C   UNL     1      -3.777   3.094 -22.517  0.00  0.00    +0.335 C 
ATOM      4  O   UNL     1      -3.238   2.368 -21.582  0.00  0.00    -0.455 OA
ATOM      5  C   UNL     1      -1.966   2.270 -21.833  0.00  0.00    +0.216 C 
ATOM      6  C   UNL     1      -1.002   1.660 -21.210  0.00  0.00    +0.192 C 
ATOM      7  O   UNL     1      -0.037   1.051 -20.588  0.00  0.00    -0.361 OA
ATOM      8  C   UNL     1       0.210   1.715 -21.677  0.00  0.00    +0.097 C 
ATOM      9  C   UNL     1       0.457   2.380 -22.766  0.00  0.00    +0.041 C 
ATOM     10  C   UNL     1       1.669   2.436 -23.234  0.00  0.00    +0.030 C 
ATOM     11  C   UNL     1       1.916   3.100 -24.323  0.00  0.00    -0.028 C 
ATOM     12  C   UNL     1       0.952   3.709 -24.946  0.00  0.00    -0.077 C 
ATOM     13  C   UNL     1      -0.260   3.654 -24.479  0.00  0.00    +0.031 C 
ATOM     14  C   UNL     1      -0.508   2.989 -23.389  0.00  0.00    +0.016 C 
ATOM     15  C   UNL     1       1.199   4.374 -26.035  0.00  0.00    +0.039 C 
ATOM     16  C   UNL     1       1.467   1.396 -21.587  0.00  0.00    +0.044 C 
ATOM     17  O   UNL     1      -5.033   3.414 -22.607  0.00  0.00    -0.245 OA
ATOM     18  C   UNL     1      -1.719   2.934 -22.923  0.00  0.00    +0.069 C 
ENDROOT
TORSDOF 0
ENDMDL
MODEL 6
REMARK VINA RESULT:    -8.329      1.302      2.345
REMARK INTER + INTRA:          -8.329
REMARK INTER:                  -8.329
REMARK INTRA:                   0.000
REMARK UNBOUND:                 0.000
REMARK  Name = ZINC000043162900
REMARK  2 active torsions:
REMARK  status: ('A' for Active; 'I' for Inactive)
REMARK    1  A    between atoms: C_9  and  C_10
REMARK    2  A    between atoms: C_14  and  C_15
REMARK                            x       y       z     vdW  Elec       q    Type
REMARK                         _______ _______ _______ _____ _____    ______ ____
ROOT
ATOM      1  C   UNL     1       1.458   2.906 -25.779  0.00  0.00    +0.020 C 
ATOM      2  C   UNL     1       1.414   2.613 -24.513  0.00  0.00    +0.036 C 
ATOM      3  C   UNL     1       2.430   2.299 -23.765  0.00  0.00    +0.335 C 
ATOM      4  O   UNL     1       1.991   2.075 -22.563  0.00  0.00    -0.455 OA
ATOM      5  C   UNL     1       0.702   2.251 -22.567  0.00  0.00    +0.216 C 
ATOM      6  C   UNL     1      -0.192   2.150 -21.629  0.00  0.00    +0.192 C 
ATOM      7  O   UNL     1      -1.086   2.050 -20.691  0.00  0.00    -0.361 OA
ATOM      8  C   UNL     1      -1.443   2.383 -21.896  0.00  0.00    +0.097 C 
ATOM      9  C   UNL     1      -1.799   2.715 -23.101  0.00  0.00    +0.041 C 
ATOM     10  C   UNL     1      -3.050   2.948 -23.368  0.00  0.00    +0.030 C 
ATOM     11  C   UNL     1      -3.406   3.280 -24.573  0.00  0.00    -0.028 C 
ATOM     12  C   UNL     1      -2.512   3.380 -25.511  0.00  0.00    -0.077 C 
ATOM     13  C   UNL     1      -1.261   3.148 -25.244  0.00  0.00    +0.031 C 
ATOM     14  C   UNL     1      -0.904   2.815 -24.039  0.00  0.00    +0.016 C 
ATOM     15  C   UNL     1      -2.868   3.713 -26.716  0.00  0.00    +0.039 C 
ATOM     16  C   UNL     1      -2.681   2.459 -21.509  0.00  0.00    +0.044 C 
ATOM     17  O   UNL     1       3.669   2.223 -24.153  0.00  0.00    -0.245 OA
ATOM     18  C   UNL     1       0.346   2.583 -23.772  0.00  0.00    +0.069 C 
ENDROOT
TORSDOF 0
ENDMDL
MODEL 7
REMARK VINA RESULT:    -8.287      1.160      3.538
REMARK INTER + INTRA:          -8.287
REMARK INTER:                  -8.287
REMARK INTRA:                   0.000
REMARK UNBOUND:                 0.000
REMARK  Name = ZINC000043162900
REMARK  2 active torsions:
REMARK  status: ('A' for Active; 'I' for Inactive)
REMARK    1  A    between atoms: C_9  and  C_10
REMARK    2  A    between atoms: C_14  and  C_15
REMARK                            x       y       z     vdW  Elec       q    Type
REMARK                         _______ _______ _______ _____ _____    ______ ____
ROOT
ATOM      1  C   UNL     1      -4.842   3.380 -21.774  0.00  0.00    +0.020 C 
ATOM      2  C   UNL     1      -3.555   3.407 -21.592  0.00  0.00    +0.036 C 
ATOM      3  C   UNL     1      -2.946   3.419 -20.443  0.00  0.00    +0.335 C 
ATOM      4  O   UNL     1      -1.665   3.446 -20.668  0.00  0.00    -0.455 OA
ATOM      5  C   UNL     1      -1.483   3.450 -21.955  0.00  0.00    +0.216 C 
ATOM      6  C   UNL     1      -0.405   3.473 -22.681  0.00  0.00    +0.192 C 
ATOM      7  O   UNL     1       0.673   3.496 -23.407  0.00  0.00    -0.361 OA
ATOM      8  C   UNL     1      -0.495   3.471 -23.978  0.00  0.00    +0.097 C 
ATOM      9  C   UNL     1      -1.662   3.447 -24.548  0.00  0.00    +0.041 C 
ATOM     10  C   UNL     1      -1.752   3.445 -25.846  0.00  0.00    +0.030 C 
ATOM     11  C   UNL     1      -2.920   3.421 -26.416  0.00  0.00    -0.028 C 
ATOM     12  C   UNL     1      -3.998   3.398 -25.690  0.00  0.00    -0.077 C 
ATOM     13  C   UNL     1      -3.909   3.400 -24.394  0.00  0.00    +0.031 C 
ATOM     14  C   UNL     1      -2.740   3.424 -23.822  0.00  0.00    +0.016 C 
ATOM     15  C   UNL     1      -5.166   3.374 -26.261  0.00  0.00    +0.039 C 
ATOM     16  C   UNL     1       0.076   3.484 -25.145  0.00  0.00    +0.044 C 
ATOM     17  O   UNL     1      -3.516   3.407 -19.275  0.00  0.00    -0.245 OA
ATOM     18  C   UNL     1      -2.651   3.426 -22.526  0.00  0.00    +0.069 C 
ENDROOT
TORSDOF 0
ENDMDL
MODEL 8
REMARK VINA RESULT:    -8.283      1.259      2.100
REMARK INTER + INTRA:          -8.283
REMARK INTER:                  -8.283
REMARK INTRA:                   0.000
REMARK UNBOUND:                 0.000
REMARK  Name = ZINC000043162900
REMARK  2 active torsions:
REMARK  status: ('A' for Active; 'I' for Inactive)
REMARK    1  A    between atoms: C_9  and  C_10
REMARK    2  A    between atoms: C_14  and  C_15
REMARK                            x       y       z     vdW  Elec       q    Type
REMARK                         _______ _______ _______ _____ _____    ______ ____
ROOT
ATOM      1  C   UNL     1      -1.209   3.528 -25.937  0.00  0.00    +0.020 C 
ATOM      2  C   UNL     1      -0.781   3.277 -24.735  0.00  0.00    +0.036 C 
ATOM      3  C   UNL     1       0.453   3.050 -24.394  0.00  0.00    +0.335 C 
ATOM      4  O   UNL     1       0.484   2.842 -23.112  0.00  0.00    -0.455 OA
ATOM      5  C   UNL     1      -0.731   2.941 -22.659  0.00  0.00    +0.216 C 
ATOM      6  C   UNL     1      -1.226   2.820 -21.463  0.00  0.00    +0.192 C 
ATOM      7  O   UNL     1      -1.721   2.699 -20.267  0.00  0.00    -0.361 OA
ATOM      8  C   UNL     1      -2.503   2.968 -21.271  0.00  0.00    +0.097 C 
ATOM      9  C   UNL     1      -3.284   3.236 -22.274  0.00  0.00    +0.041 C 
ATOM     10  C   UNL     1      -4.562   3.385 -22.082  0.00  0.00    +0.030 C 
ATOM     11  C   UNL     1      -5.344   3.653 -23.085  0.00  0.00    -0.028 C 
ATOM     12  C   UNL     1      -4.848   3.774 -24.281  0.00  0.00    -0.077 C 
ATOM     13  C   UNL     1      -3.572   3.626 -24.473  0.00  0.00    +0.031 C 
ATOM     14  C   UNL     1      -2.789   3.357 -23.470  0.00  0.00    +0.016 C 
ATOM     15  C   UNL     1      -5.630   4.042 -25.284  0.00  0.00    +0.039 C 
ATOM     16  C   UNL     1      -3.526   2.984 -20.469  0.00  0.00    +0.044 C 
ATOM     17  O   UNL     1       1.476   3.035 -25.196  0.00  0.00    -0.245 OA
ATOM     18  C   UNL     1      -1.512   3.209 -23.663  0.00  0.00    +0.069 C 
ENDROOT
TORSDOF 0
ENDMDL
MODEL 9
REMARK VINA RESULT:    -8.102      1.716      4.190
REMARK INTER + INTRA:          -8.102
REMARK INTER:                  -8.102
REMARK INTRA:                   0.000
REMARK UNBOUND:                 0.000
REMARK  Name = ZINC000043162900
REMARK  2 active torsions:
REMARK  status: ('A' for Active; 'I' for Inactive)
REMARK    1  A    between atoms: C_9  and  C_10
REMARK    2  A    between atoms: C_14  and  C_15
REMARK                            x       y       z     vdW  Elec       q    Type
REMARK                         _______ _______ _______ _____ _____    ______ ____
ROOT
ATOM      1  C   UNL     1      -2.601   3.741 -26.433  0.00  0.00    +0.020 C 
ATOM      2  C   UNL     1      -3.168   3.591 -25.272  0.00  0.00    +0.036 C 
ATOM      3  C   UNL     1      -4.429   3.764 -25.010  0.00  0.00    +0.335 C 
ATOM      4  O   UNL     1      -4.614   3.521 -23.746  0.00  0.00    -0.455 OA
ATOM      5  C   UNL     1      -3.466   3.198 -23.227  0.00  0.00    +0.216 C 
ATOM      6  C   UNL     1      -3.119   2.870 -22.018  0.00  0.00    +0.192 C 
ATOM      7  O   UNL     1      -2.772   2.542 -20.809  0.00  0.00    -0.361 OA
ATOM      8  C   UNL     1      -1.879   2.585 -21.752  0.00  0.00    +0.097 C 
ATOM      9  C   UNL     1      -0.986   2.629 -22.696  0.00  0.00    +0.041 C 
ATOM     10  C   UNL     1       0.255   2.344 -22.430  0.00  0.00    +0.030 C 
ATOM     11  C   UNL     1       1.148   2.387 -23.373  0.00  0.00    -0.028 C 
ATOM     12  C   UNL     1       0.801   2.715 -24.583  0.00  0.00    -0.077 C 
ATOM     13  C   UNL     1      -0.439   3.000 -24.848  0.00  0.00    +0.031 C 
ATOM     14  C   UNL     1      -1.333   2.957 -23.905  0.00  0.00    +0.016 C 
ATOM     15  C   UNL     1       1.694   2.759 -25.526  0.00  0.00    +0.039 C 
ATOM     16  C   UNL     1      -0.963   2.232 -20.901  0.00  0.00    +0.044 C 
ATOM     17  O   UNL     1      -5.345   4.117 -25.861  0.00  0.00    -0.245 OA
ATOM     18  C   UNL     1      -2.573   3.241 -24.171  0.00  0.00    +0.069 C 
ENDROOT
TORSDOF 0
ENDMDL
