MODEL 1
REMARK VINA RESULT:    -8.471      0.000      0.000
REMARK INTER + INTRA:         -16.887
REMARK INTER:                 -16.464
REMARK INTRA:                  -0.423
REMARK UNBOUND:                -0.987
REMARK  Name = ZINC000085340959
REMARK  19 active torsions:
REMARK  status: ('A' for Active; 'I' for Inactive)
REMARK    1  A    between atoms: C_1  and  C_2
REMARK    2  A    between atoms: C_2  and  C_3
REMARK    3  A    between atoms: C_3  and  C_4
REMARK    4  A    between atoms: C_4  and  C_5
REMARK    5  A    between atoms: C_5  and  C_6
REMARK    6  A    between atoms: C_6  and  C_7
REMARK    7  A    between atoms: C_7  and  C_8
REMARK    8  A    between atoms: C_8  and  C_9
REMARK    9  A    between atoms: C_9  and  C_10
REMARK   10  A    between atoms: C_10  and  C_11
REMARK   11  A    between atoms: C_11  and  C_12
REMARK   12  A    between atoms: C_13  and  O_14
REMARK   13  A    between atoms: C_15  and  O_16
REMARK   14  A    between atoms: C_22  and  C_23
REMARK   15  A    between atoms: N_25  and  CA_26
REMARK   16  A    between atoms: CA_26  and  C_27
REMARK   17  A    between atoms: CA_26  and  CB_30
REMARK   18  A    between atoms: CB_30  and  CG1_31
REMARK   19  A    between atoms: CB_30  and  CG2_32
REMARK                            x       y       z     vdW  Elec       q    Type
REMARK                         _______ _______ _______ _____ _____    ______ ____
ROOT
ATOM      1  C   UNK A   0       5.173   3.528 -22.877  0.00  0.00    +0.025 A 
ATOM      2  C   UNK A   0       5.999   2.556 -22.632  0.00  0.00    +0.164 A 
ATOM      3  C   UNK A   0       5.559   1.337 -22.518  0.00  0.00    +0.161 A 
ATOM      4  C   UNK A   0       4.289   1.092 -22.650  0.00  0.00    +0.079 A 
ATOM      5  C   UNK A   0       3.461   2.063 -22.895  0.00  0.00    +0.094 A 
ATOM      6  N   UNK A   0       2.192   1.815 -23.026  0.00  0.00    -0.243 NA
ATOM      7  C   UNK A   0       1.362   2.786 -23.271  0.00  0.00    +0.091 A 
ATOM      8  C   UNK A   0       0.093   2.539 -23.403  0.00  0.00    +0.043 A 
ATOM      9  C   UNK A   0      -0.737   3.509 -23.648  0.00  0.00    +0.039 A 
ATOM     10  C   UNK A   0      -0.296   4.726 -23.762  0.00  0.00    +0.015 A 
ATOM     11  C   UNK A   0       0.973   4.975 -23.631  0.00  0.00    +0.030 A 
ATOM     12  C   UNK A   0       1.803   4.003 -23.385  0.00  0.00    +0.090 A 
ATOM     13  N   UNK A   0       3.073   4.252 -23.254  0.00  0.00    -0.243 NA
ATOM     14  C   UNK A   0       3.901   3.280 -23.009  0.00  0.00    +0.097 A 
ENDROOT
BRANCH   9  15
ATOM     15  C   UNK A   0      -2.005   3.261 -23.780  0.00  0.00    +0.245 C 
ATOM     16  N   VAL A   1      -2.883   4.081 -23.282  0.00  0.00    -0.303 N 
ATOM     17  H   VAL A   1      -2.585   4.890 -22.805  0.00  0.00    +0.150 HD
ATOM     18  O   UNK A   0      -2.398   2.193 -24.409  0.00  0.00    -0.270 OA
BRANCH  16  19
ATOM     19  CA  VAL A   1      -4.152   3.834 -23.413  0.00  0.00    +0.121 C 
BRANCH  19  20
ATOM     20  C   VAL A   1      -4.760   4.127 -24.524  0.00  0.00    +0.062 C 
ATOM     21  OXT VAL A   1      -4.980   3.202 -25.410  0.00  0.00    -0.548 OA
ATOM     22  O   VAL A   1      -5.149   5.347 -24.749  0.00  0.00    -0.548 OA
ENDBRANCH  19  20
BRANCH  19  23
ATOM     23  CB  VAL A   1      -4.814   3.293 -22.434  0.00  0.00    +0.009 C 
ATOM     24  CG2 VAL A   1      -4.176   2.748 -21.441  0.00  0.00    +0.009 C 
ATOM     25  CG1 VAL A   1      -6.114   3.297 -22.447  0.00  0.00    +0.009 C 
ENDBRANCH  19  23
ENDBRANCH  16  19
ENDBRANCH   9  15
BRANCH   2  26
ATOM     26  O   UNK A   0       7.270   2.801 -22.500  0.00  0.00    -0.503 OA
ATOM     27  H   UNK A   0       7.736   2.470 -21.757  0.00  0.00    +0.292 HD
ENDBRANCH   2  26
BRANCH   3  28
ATOM     28  O   UNK A   0       6.387   0.366 -22.273  0.00  0.00    -0.503 OA
ATOM     29  H   UNK A   0       7.309   0.530 -22.261  0.00  0.00    +0.292 HD
ENDBRANCH   3  28
BRANCH   1  30
ATOM     30  C   UNK A   0       5.612   4.745 -22.991  0.00  0.00    +0.041 C 
BRANCH  30  31
ATOM     31  C   UNK A   0       5.698   5.506 -21.941  0.00  0.00    +0.005 C 
BRANCH  31  32
ATOM     32  C   UNK A   0       6.267   6.672 -22.027  0.00  0.00    +0.000 C 
BRANCH  32  33
ATOM     33  C   UNK A   0       5.854   7.654 -21.280  0.00  0.00    +0.000 C 
BRANCH  33  34
ATOM     34  C   UNK A   0       4.599   7.993 -21.288  0.00  0.00    +0.000 C 
BRANCH  34  35
ATOM     35  C   UNK A   0       4.135   8.789 -20.371  0.00  0.00    +0.000 C 
BRANCH  35  36
ATOM     36  C   UNK A   0       4.145  10.075 -20.562  0.00  0.00    -0.000 C 
BRANCH  36  37
ATOM     37  C   UNK A   0       4.021  10.554 -21.764  0.00  0.00    -0.000 C 
BRANCH  37  38
ATOM     38  C   UNK A   0       3.352  11.652 -21.961  0.00  0.00    -0.000 C 
BRANCH  38  40
ATOM     39  C   UNK A   0       2.163  13.274 -20.948  0.00  0.00    +0.004 C 
ATOM     40  C   UNK A   0       3.216  12.512 -20.995  0.00  0.00    -0.003 C 
ENDBRANCH  38  40
ENDBRANCH  37  38
ENDBRANCH  36  37
ENDBRANCH  35  36
ENDBRANCH  34  35
ENDBRANCH  33  34
ENDBRANCH  32  33
ENDBRANCH  31  32
ENDBRANCH  30  31
ENDBRANCH   1  30
TORSDOF 16
ENDMDL
MODEL 2
REMARK VINA RESULT:    -8.467      1.804      2.509
REMARK INTER + INTRA:         -16.879
REMARK INTER:                 -15.706
REMARK INTRA:                  -1.172
REMARK UNBOUND:                -0.987
REMARK  Name = ZINC000085340959
REMARK  19 active torsions:
REMARK  status: ('A' for Active; 'I' for Inactive)
REMARK    1  A    between atoms: C_1  and  C_2
REMARK    2  A    between atoms: C_2  and  C_3
REMARK    3  A    between atoms: C_3  and  C_4
REMARK    4  A    between atoms: C_4  and  C_5
REMARK    5  A    between atoms: C_5  and  C_6
REMARK    6  A    between atoms: C_6  and  C_7
REMARK    7  A    between atoms: C_7  and  C_8
REMARK    8  A    between atoms: C_8  and  C_9
REMARK    9  A    between atoms: C_9  and  C_10
REMARK   10  A    between atoms: C_10  and  C_11
REMARK   11  A    between atoms: C_11  and  C_12
REMARK   12  A    between atoms: C_13  and  O_14
REMARK   13  A    between atoms: C_15  and  O_16
REMARK   14  A    between atoms: C_22  and  C_23
REMARK   15  A    between atoms: N_25  and  CA_26
REMARK   16  A    between atoms: CA_26  and  C_27
REMARK   17  A    between atoms: CA_26  and  CB_30
REMARK   18  A    between atoms: CB_30  and  CG1_31
REMARK   19  A    between atoms: CB_30  and  CG2_32
REMARK                            x       y       z     vdW  Elec       q    Type
REMARK                         _______ _______ _______ _____ _____    ______ ____
ROOT
ATOM      1  C   UNK A   0       5.054   3.116 -22.714  0.00  0.00    +0.025 A 
ATOM      2  C   UNK A   0       5.683   2.530 -21.739  0.00  0.00    +0.164 A 
ATOM      3  C   UNK A   0       5.024   1.825 -20.867  0.00  0.00    +0.161 A 
ATOM      4  C   UNK A   0       3.734   1.707 -20.971  0.00  0.00    +0.079 A 
ATOM      5  C   UNK A   0       3.103   2.292 -21.945  0.00  0.00    +0.094 A 
ATOM      6  N   UNK A   0       1.813   2.172 -22.047  0.00  0.00    -0.243 NA
ATOM      7  C   UNK A   0       1.181   2.757 -23.021  0.00  0.00    +0.091 A 
ATOM      8  C   UNK A   0      -0.109   2.637 -23.123  0.00  0.00    +0.043 A 
ATOM      9  C   UNK A   0      -0.742   3.222 -24.096  0.00  0.00    +0.039 A 
ATOM     10  C   UNK A   0      -0.083   3.926 -24.968  0.00  0.00    +0.015 A 
ATOM     11  C   UNK A   0       1.207   4.047 -24.867  0.00  0.00    +0.030 A 
ATOM     12  C   UNK A   0       1.840   3.461 -23.892  0.00  0.00    +0.090 A 
ATOM     13  N   UNK A   0       3.131   3.582 -23.790  0.00  0.00    -0.243 NA
ATOM     14  C   UNK A   0       3.761   2.996 -22.816  0.00  0.00    +0.097 A 
ENDROOT
BRANCH   9  15
ATOM     15  C   UNK A   0      -2.031   3.102 -24.198  0.00  0.00    +0.245 C 
ATOM     16  N   VAL A   1      -2.813   3.857 -23.484  0.00  0.00    -0.303 N 
ATOM     17  H   VAL A   1      -2.427   4.519 -22.866  0.00  0.00    +0.150 HD
ATOM     18  O   UNK A   0      -2.541   2.228 -25.015  0.00  0.00    -0.270 OA
BRANCH  16  19
ATOM     19  CA  VAL A   1      -4.104   3.737 -23.586  0.00  0.00    +0.121 C 
BRANCH  19  20
ATOM     20  C   VAL A   1      -4.703   4.075 -24.689  0.00  0.00    +0.062 C 
ATOM     21  OXT VAL A   1      -4.742   5.322 -25.053  0.00  0.00    -0.548 OA
ATOM     22  O   VAL A   1      -5.264   3.165 -25.429  0.00  0.00    -0.548 OA
ENDBRANCH  19  20
BRANCH  19  23
ATOM     23  CB  VAL A   1      -4.795   3.279 -22.585  0.00  0.00    +0.009 C 
ATOM     24  CG2 VAL A   1      -6.094   3.337 -22.613  0.00  0.00    +0.009 C 
ATOM     25  CG1 VAL A   1      -4.189   2.765 -21.556  0.00  0.00    +0.009 C 
ENDBRANCH  19  23
ENDBRANCH  16  19
ENDBRANCH   9  15
BRANCH   2  26
ATOM     26  O   UNK A   0       6.975   2.649 -21.635  0.00  0.00    -0.503 OA
ATOM     27  H   UNK A   0       7.510   2.628 -22.404  0.00  0.00    +0.292 HD
ENDBRANCH   2  26
BRANCH   3  28
ATOM     28  O   UNK A   0       5.655   1.240 -19.893  0.00  0.00    -0.503 OA
ATOM     29  H   UNK A   0       6.477   0.822 -20.053  0.00  0.00    +0.292 HD
ENDBRANCH   3  28
BRANCH   1  30
ATOM     30  C   UNK A   0       5.711   3.820 -23.585  0.00  0.00    +0.041 C 
BRANCH  30  31
ATOM     31  C   UNK A   0       6.306   4.917 -23.220  0.00  0.00    +0.005 C 
BRANCH  31  32
ATOM     32  C   UNK A   0       7.382   5.310 -23.835  0.00  0.00    +0.000 C 
BRANCH  32  33
ATOM     33  C   UNK A   0       8.338   5.888 -23.169  0.00  0.00    +0.000 C 
BRANCH  33  34
ATOM     34  C   UNK A   0       8.443   5.698 -21.887  0.00  0.00    +0.000 C 
BRANCH  34  35
ATOM     35  C   UNK A   0       8.542   6.717 -21.086  0.00  0.00    +0.000 C 
BRANCH  35  36
ATOM     36  C   UNK A   0       7.518   7.085 -20.374  0.00  0.00    -0.000 C 
BRANCH  36  37
ATOM     37  C   UNK A   0       6.748   8.045 -20.793  0.00  0.00    -0.000 C 
BRANCH  37  38
ATOM     38  C   UNK A   0       5.456   7.896 -20.776  0.00  0.00    -0.000 C 
BRANCH  38  40
ATOM     39  C   UNK A   0       3.852   7.155 -22.172  0.00  0.00    +0.004 C 
ATOM     40  C   UNK A   0       4.772   8.025 -21.875  0.00  0.00    -0.003 C 
ENDBRANCH  38  40
ENDBRANCH  37  38
ENDBRANCH  36  37
ENDBRANCH  35  36
ENDBRANCH  34  35
ENDBRANCH  33  34
ENDBRANCH  32  33
ENDBRANCH  31  32
ENDBRANCH  30  31
ENDBRANCH   1  30
TORSDOF 16
ENDMDL
MODEL 3
REMARK VINA RESULT:    -8.301      2.817      9.165
REMARK INTER + INTRA:         -16.568
REMARK INTER:                 -13.874
REMARK INTRA:                  -2.694
REMARK UNBOUND:                -0.987
REMARK  Name = ZINC000085340959
REMARK  19 active torsions:
REMARK  status: ('A' for Active; 'I' for Inactive)
REMARK    1  A    between atoms: C_1  and  C_2
REMARK    2  A    between atoms: C_2  and  C_3
REMARK    3  A    between atoms: C_3  and  C_4
REMARK    4  A    between atoms: C_4  and  C_5
REMARK    5  A    between atoms: C_5  and  C_6
REMARK    6  A    between atoms: C_6  and  C_7
REMARK    7  A    between atoms: C_7  and  C_8
REMARK    8  A    between atoms: C_8  and  C_9
REMARK    9  A    between atoms: C_9  and  C_10
REMARK   10  A    between atoms: C_10  and  C_11
REMARK   11  A    between atoms: C_11  and  C_12
REMARK   12  A    between atoms: C_13  and  O_14
REMARK   13  A    between atoms: C_15  and  O_16
REMARK   14  A    between atoms: C_22  and  C_23
REMARK   15  A    between atoms: N_25  and  CA_26
REMARK   16  A    between atoms: CA_26  and  C_27
REMARK   17  A    between atoms: CA_26  and  CB_30
REMARK   18  A    between atoms: CB_30  and  CG1_31
REMARK   19  A    between atoms: CB_30  and  CG2_32
REMARK                            x       y       z     vdW  Elec       q    Type
REMARK                         _______ _______ _______ _____ _____    ______ ____
ROOT
ATOM      1  C   UNK A   0      -3.377   4.301 -24.802  0.00  0.00    +0.025 A 
ATOM      2  C   UNK A   0      -4.013   3.922 -25.869  0.00  0.00    +0.164 A 
ATOM      3  C   UNK A   0      -3.361   3.409 -26.871  0.00  0.00    +0.161 A 
ATOM      4  C   UNK A   0      -2.070   3.275 -26.803  0.00  0.00    +0.079 A 
ATOM      5  C   UNK A   0      -1.432   3.654 -25.736  0.00  0.00    +0.094 A 
ATOM      6  N   UNK A   0      -0.141   3.519 -25.670  0.00  0.00    -0.243 NA
ATOM      7  C   UNK A   0       0.499   3.897 -24.604  0.00  0.00    +0.091 A 
ATOM      8  C   UNK A   0       1.789   3.763 -24.537  0.00  0.00    +0.043 A 
ATOM      9  C   UNK A   0       2.430   4.141 -23.471  0.00  0.00    +0.039 A 
ATOM     10  C   UNK A   0       1.777   4.653 -22.471  0.00  0.00    +0.015 A 
ATOM     11  C   UNK A   0       0.486   4.789 -22.535  0.00  0.00    +0.030 A 
ATOM     12  C   UNK A   0      -0.154   4.410 -23.603  0.00  0.00    +0.090 A 
ATOM     13  N   UNK A   0      -1.446   4.545 -23.668  0.00  0.00    -0.243 NA
ATOM     14  C   UNK A   0      -2.084   4.167 -24.736  0.00  0.00    +0.097 A 
ENDROOT
BRANCH   9  15
ATOM     15  C   UNK A   0       3.720   4.006 -23.405  0.00  0.00    +0.245 C 
ATOM     16  N   VAL A   1       4.385   4.572 -22.442  0.00  0.00    -0.303 N 
ATOM     17  H   VAL A   1       3.910   5.104 -21.762  0.00  0.00    +0.150 HD
ATOM     18  O   UNK A   0       4.347   3.305 -24.303  0.00  0.00    -0.270 OA
BRANCH  16  19
ATOM     19  CA  VAL A   1       5.676   4.438 -22.376  0.00  0.00    +0.121 C 
BRANCH  19  20
ATOM     20  C   VAL A   1       6.192   3.375 -21.833  0.00  0.00    +0.062 C 
ATOM     21  OXT VAL A   1       6.811   2.502 -22.570  0.00  0.00    -0.548 OA
ATOM     22  O   VAL A   1       6.089   3.187 -20.550  0.00  0.00    -0.548 OA
ENDBRANCH  19  20
BRANCH  19  23
ATOM     23  CB  VAL A   1       6.452   5.365 -22.853  0.00  0.00    +0.009 C 
ATOM     24  CG2 VAL A   1       6.454   6.550 -22.317  0.00  0.00    +0.009 C 
ATOM     25  CG1 VAL A   1       7.226   5.109 -23.866  0.00  0.00    +0.009 C 
ENDBRANCH  19  23
ENDBRANCH  16  19
ENDBRANCH   9  15
BRANCH   2  26
ATOM     26  O   UNK A   0      -5.306   4.056 -25.938  0.00  0.00    -0.503 OA
ATOM     27  H   UNK A   0      -5.845   3.310 -26.114  0.00  0.00    +0.292 HD
ENDBRANCH   2  26
BRANCH   3  28
ATOM     28  O   UNK A   0      -3.999   3.031 -27.938  0.00  0.00    -0.503 OA
ATOM     29  H   UNK A   0      -4.350   2.164 -27.990  0.00  0.00    +0.292 HD
ENDBRANCH   3  28
BRANCH   1  30
ATOM     30  C   UNK A   0      -4.028   4.814 -23.802  0.00  0.00    +0.041 C 
BRANCH  30  31
ATOM     31  C   UNK A   0      -4.891   4.093 -23.149  0.00  0.00    +0.005 C 
BRANCH  31  32
ATOM     32  C   UNK A   0      -4.490   3.280 -22.218  0.00  0.00    +0.000 C 
BRANCH  32  33
ATOM     33  C   UNK A   0      -3.897   3.746 -21.158  0.00  0.00    +0.000 C 
BRANCH  33  34
ATOM     34  C   UNK A   0      -2.846   3.144 -20.684  0.00  0.00    +0.000 C 
BRANCH  34  35
ATOM     35  C   UNK A   0      -2.253   2.225 -21.386  0.00  0.00    +0.000 C 
BRANCH  35  36
ATOM     36  C   UNK A   0      -1.008   1.929 -21.150  0.00  0.00    -0.000 C 
BRANCH  36  37
ATOM     37  C   UNK A   0      -0.364   1.140 -21.958  0.00  0.00    -0.000 C 
BRANCH  37  38
ATOM     38  C   UNK A   0       0.936   1.124 -21.953  0.00  0.00    -0.000 C 
BRANCH  38  40
ATOM     39  C   UNK A   0       2.886   1.447 -20.874  0.00  0.00    +0.004 C 
ATOM     40  C   UNK A   0       1.586   1.484 -20.886  0.00  0.00    -0.003 C 
ENDBRANCH  38  40
ENDBRANCH  37  38
ENDBRANCH  36  37
ENDBRANCH  35  36
ENDBRANCH  34  35
ENDBRANCH  33  34
ENDBRANCH  32  33
ENDBRANCH  31  32
ENDBRANCH  30  31
ENDBRANCH   1  30
TORSDOF 16
ENDMDL
MODEL 4
REMARK VINA RESULT:    -8.264      2.504      5.277
REMARK INTER + INTRA:         -16.498
REMARK INTER:                 -14.660
REMARK INTRA:                  -1.838
REMARK UNBOUND:                -0.987
REMARK  Name = ZINC000085340959
REMARK  19 active torsions:
REMARK  status: ('A' for Active; 'I' for Inactive)
REMARK    1  A    between atoms: C_1  and  C_2
REMARK    2  A    between atoms: C_2  and  C_3
REMARK    3  A    between atoms: C_3  and  C_4
REMARK    4  A    between atoms: C_4  and  C_5
REMARK    5  A    between atoms: C_5  and  C_6
REMARK    6  A    between atoms: C_6  and  C_7
REMARK    7  A    between atoms: C_7  and  C_8
REMARK    8  A    between atoms: C_8  and  C_9
REMARK    9  A    between atoms: C_9  and  C_10
REMARK   10  A    between atoms: C_10  and  C_11
REMARK   11  A    between atoms: C_11  and  C_12
REMARK   12  A    between atoms: C_13  and  O_14
REMARK   13  A    between atoms: C_15  and  O_16
REMARK   14  A    between atoms: C_22  and  C_23
REMARK   15  A    between atoms: N_25  and  CA_26
REMARK   16  A    between atoms: CA_26  and  C_27
REMARK   17  A    between atoms: CA_26  and  CB_30
REMARK   18  A    between atoms: CB_30  and  CG1_31
REMARK   19  A    between atoms: CB_30  and  CG2_32
REMARK                            x       y       z     vdW  Elec       q    Type
REMARK                         _______ _______ _______ _____ _____    ______ ____
ROOT
ATOM      1  C   UNK A   0       5.867   4.778 -23.085  0.00  0.00    +0.025 A 
ATOM      2  C   UNK A   0       6.562   5.697 -22.486  0.00  0.00    +0.164 A 
ATOM      3  C   UNK A   0       5.967   6.720 -21.947  0.00  0.00    +0.161 A 
ATOM      4  C   UNK A   0       4.672   6.823 -22.008  0.00  0.00    +0.079 A 
ATOM      5  C   UNK A   0       3.975   5.905 -22.607  0.00  0.00    +0.094 A 
ATOM      6  N   UNK A   0       2.681   6.009 -22.668  0.00  0.00    -0.243 NA
ATOM      7  C   UNK A   0       1.981   5.091 -23.267  0.00  0.00    +0.091 A 
ATOM      8  C   UNK A   0       0.688   5.195 -23.327  0.00  0.00    +0.043 A 
ATOM      9  C   UNK A   0      -0.013   4.278 -23.926  0.00  0.00    +0.039 A 
ATOM     10  C   UNK A   0       0.584   3.256 -24.464  0.00  0.00    +0.015 A 
ATOM     11  C   UNK A   0       1.878   3.150 -24.405  0.00  0.00    +0.030 A 
ATOM     12  C   UNK A   0       2.577   4.069 -23.805  0.00  0.00    +0.090 A 
ATOM     13  N   UNK A   0       3.872   3.964 -23.745  0.00  0.00    -0.243 NA
ATOM     14  C   UNK A   0       4.570   4.883 -23.146  0.00  0.00    +0.097 A 
ENDROOT
BRANCH   9  15
ATOM     15  C   UNK A   0      -1.306   4.383 -23.986  0.00  0.00    +0.245 C 
ATOM     16  N   VAL A   1      -2.033   3.330 -24.214  0.00  0.00    -0.303 N 
ATOM     17  H   VAL A   1      -1.604   2.453 -24.342  0.00  0.00    +0.150 HD
ATOM     18  O   UNK A   0      -1.873   5.540 -23.818  0.00  0.00    -0.270 OA
BRANCH  16  19
ATOM     19  CA  VAL A   1      -3.328   3.434 -24.275  0.00  0.00    +0.121 C 
BRANCH  19  20
ATOM     20  C   VAL A   1      -3.911   3.645 -25.418  0.00  0.00    +0.062 C 
ATOM     21  OXT VAL A   1      -4.203   4.857 -25.785  0.00  0.00    -0.548 OA
ATOM     22  O   VAL A   1      -4.201   2.643 -26.194  0.00  0.00    -0.548 OA
ENDBRANCH  19  20
BRANCH  19  23
ATOM     23  CB  VAL A   1      -4.040   3.327 -23.193  0.00  0.00    +0.009 C 
ATOM     24  CG2 VAL A   1      -5.267   3.759 -23.177  0.00  0.00    +0.009 C 
ATOM     25  CG1 VAL A   1      -3.527   2.789 -22.126  0.00  0.00    +0.009 C 
ENDBRANCH  19  23
ENDBRANCH  16  19
ENDBRANCH   9  15
BRANCH   2  26
ATOM     26  O   UNK A   0       7.858   5.595 -22.424  0.00  0.00    -0.503 OA
ATOM     27  H   UNK A   0       8.317   5.917 -21.674  0.00  0.00    +0.292 HD
ENDBRANCH   2  26
BRANCH   3  28
ATOM     28  O   UNK A   0       6.664   7.638 -21.348  0.00  0.00    -0.503 OA
ATOM     29  H   UNK A   0       6.585   7.756 -20.422  0.00  0.00    +0.292 HD
ENDBRANCH   3  28
BRANCH   1  30
ATOM     30  C   UNK A   0       6.461   3.756 -23.623  0.00  0.00    +0.041 C 
BRANCH  30  31
ATOM     31  C   UNK A   0       6.939   2.810 -22.870  0.00  0.00    +0.005 C 
BRANCH  31  32
ATOM     32  C   UNK A   0       6.214   2.310 -21.914  0.00  0.00    +0.000 C 
BRANCH  32  33
ATOM     33  C   UNK A   0       5.572   1.194 -22.099  0.00  0.00    +0.000 C 
BRANCH  33  34
ATOM     34  C   UNK A   0       5.044   0.573 -21.086  0.00  0.00    +0.000 C 
BRANCH  34  35
ATOM     35  C   UNK A   0       3.759   0.377 -21.043  0.00  0.00    +0.000 C 
BRANCH  35  36
ATOM     36  C   UNK A   0       3.055   0.441 -22.134  0.00  0.00    -0.000 C 
BRANCH  36  37
ATOM     37  C   UNK A   0       1.790   0.734 -22.075  0.00  0.00    -0.000 C 
BRANCH  37  38
ATOM     38  C   UNK A   0       1.364   1.603 -21.206  0.00  0.00    -0.000 C 
BRANCH  38  40
ATOM     39  C   UNK A   0      -0.763   1.085 -21.730  0.00  0.00    +0.004 C 
ATOM     40  C   UNK A   0       0.088   1.761 -21.016  0.00  0.00    -0.003 C 
ENDBRANCH  38  40
ENDBRANCH  37  38
ENDBRANCH  36  37
ENDBRANCH  35  36
ENDBRANCH  34  35
ENDBRANCH  33  34
ENDBRANCH  32  33
ENDBRANCH  31  32
ENDBRANCH  30  31
ENDBRANCH   1  30
TORSDOF 16
ENDMDL
MODEL 5
REMARK VINA RESULT:    -7.609      3.209      8.602
REMARK INTER + INTRA:         -15.268
REMARK INTER:                 -13.727
REMARK INTRA:                  -1.541
REMARK UNBOUND:                -0.987
REMARK  Name = ZINC000085340959
REMARK  19 active torsions:
REMARK  status: ('A' for Active; 'I' for Inactive)
REMARK    1  A    between atoms: C_1  and  C_2
REMARK    2  A    between atoms: C_2  and  C_3
REMARK    3  A    between atoms: C_3  and  C_4
REMARK    4  A    between atoms: C_4  and  C_5
REMARK    5  A    between atoms: C_5  and  C_6
REMARK    6  A    between atoms: C_6  and  C_7
REMARK    7  A    between atoms: C_7  and  C_8
REMARK    8  A    between atoms: C_8  and  C_9
REMARK    9  A    between atoms: C_9  and  C_10
REMARK   10  A    between atoms: C_10  and  C_11
REMARK   11  A    between atoms: C_11  and  C_12
REMARK   12  A    between atoms: C_13  and  O_14
REMARK   13  A    between atoms: C_15  and  O_16
REMARK   14  A    between atoms: C_22  and  C_23
REMARK   15  A    between atoms: N_25  and  CA_26
REMARK   16  A    between atoms: CA_26  and  C_27
REMARK   17  A    between atoms: CA_26  and  CB_30
REMARK   18  A    between atoms: CB_30  and  CG1_31
REMARK   19  A    between atoms: CB_30  and  CG2_32
REMARK                            x       y       z     vdW  Elec       q    Type
REMARK                         _______ _______ _______ _____ _____    ______ ____
ROOT
ATOM      1  C   UNK A   0       3.225   2.809 -23.956  0.00  0.00    +0.025 A 
ATOM      2  C   UNK A   0       2.082   2.435 -24.447  0.00  0.00    +0.164 A 
ATOM      3  C   UNK A   0       1.092   3.277 -24.512  0.00  0.00    +0.161 A 
ATOM      4  C   UNK A   0       1.248   4.494 -24.083  0.00  0.00    +0.079 A 
ATOM      5  C   UNK A   0       2.390   4.869 -23.592  0.00  0.00    +0.094 A 
ATOM      6  N   UNK A   0       2.544   6.087 -23.164  0.00  0.00    -0.243 NA
ATOM      7  C   UNK A   0       3.687   6.465 -22.672  0.00  0.00    +0.091 A 
ATOM      8  C   UNK A   0       3.841   7.682 -22.244  0.00  0.00    +0.043 A 
ATOM      9  C   UNK A   0       4.983   8.060 -21.751  0.00  0.00    +0.039 A 
ATOM     10  C   UNK A   0       5.971   7.218 -21.688  0.00  0.00    +0.015 A 
ATOM     11  C   UNK A   0       5.819   6.000 -22.115  0.00  0.00    +0.030 A 
ATOM     12  C   UNK A   0       4.675   5.623 -22.608  0.00  0.00    +0.090 A 
ATOM     13  N   UNK A   0       4.522   4.404 -23.035  0.00  0.00    -0.243 NA
ATOM     14  C   UNK A   0       3.379   4.029 -23.527  0.00  0.00    +0.097 A 
ENDROOT
BRANCH   9  15
ATOM     15  C   UNK A   0       5.136   9.276 -21.324  0.00  0.00    +0.245 C 
ATOM     16  N   VAL A   1       4.448  10.244 -21.855  0.00  0.00    -0.303 N 
ATOM     17  H   VAL A   1       3.811  10.053 -22.581  0.00  0.00    +0.150 HD
ATOM     18  O   UNK A   0       5.977   9.528 -20.365  0.00  0.00    -0.270 OA
BRANCH  16  19
ATOM     19  CA  VAL A   1       4.602  11.462 -21.427  0.00  0.00    +0.121 C 
BRANCH  19  20
ATOM     20  C   VAL A   1       5.709  12.100 -21.665  0.00  0.00    +0.062 C 
ATOM     21  OXT VAL A   1       6.338  12.695 -20.697  0.00  0.00    -0.548 OA
ATOM     22  O   VAL A   1       6.187  12.142 -22.874  0.00  0.00    -0.548 OA
ENDBRANCH  19  20
BRANCH  19  23
ATOM     23  CB  VAL A   1       3.648  12.042 -20.762  0.00  0.00    +0.009 C 
ATOM     24  CG2 VAL A   1       2.811  12.825 -21.376  0.00  0.00    +0.009 C 
ATOM     25  CG1 VAL A   1       3.531  11.840 -19.483  0.00  0.00    +0.009 C 
ENDBRANCH  19  23
ENDBRANCH  16  19
ENDBRANCH   9  15
BRANCH   2  26
ATOM     26  O   UNK A   0       1.926   1.217 -24.876  0.00  0.00    -0.503 OA
ATOM     27  H   UNK A   0       1.142   0.978 -25.331  0.00  0.00    +0.292 HD
ENDBRANCH   2  26
BRANCH   3  28
ATOM     28  O   UNK A   0      -0.050   2.901 -25.003  0.00  0.00    -0.503 OA
ATOM     29  H   UNK A   0      -0.126   2.071 -25.429  0.00  0.00    +0.292 HD
ENDBRANCH   3  28
BRANCH   1  30
ATOM     30  C   UNK A   0       4.213   1.969 -23.891  0.00  0.00    +0.041 C 
BRANCH  30  31
ATOM     31  C   UNK A   0       4.561   1.460 -22.747  0.00  0.00    +0.005 C 
BRANCH  31  32
ATOM     32  C   UNK A   0       3.759   0.647 -22.125  0.00  0.00    +0.000 C 
BRANCH  32  33
ATOM     33  C   UNK A   0       3.393   0.903 -20.903  0.00  0.00    +0.000 C 
BRANCH  33  34
ATOM     34  C   UNK A   0       2.292   1.558 -20.679  0.00  0.00    +0.000 C 
BRANCH  34  35
ATOM     35  C   UNK A   0       1.201   1.227 -21.304  0.00  0.00    +0.000 C 
BRANCH  35  36
ATOM     36  C   UNK A   0       0.113   1.914 -21.119  0.00  0.00    -0.000 C 
BRANCH  36  37
ATOM     37  C   UNK A   0      -0.954   1.639 -21.809  0.00  0.00    -0.000 C 
BRANCH  37  38
ATOM     38  C   UNK A   0      -1.847   2.561 -22.020  0.00  0.00    -0.000 C 
BRANCH  38  40
ATOM     39  C   UNK A   0      -3.054   3.553 -20.400  0.00  0.00    +0.004 C 
ATOM     40  C   UNK A   0      -2.918   2.610 -21.284  0.00  0.00    -0.003 C 
ENDBRANCH  38  40
ENDBRANCH  37  38
ENDBRANCH  36  37
ENDBRANCH  35  36
ENDBRANCH  34  35
ENDBRANCH  33  34
ENDBRANCH  32  33
ENDBRANCH  31  32
ENDBRANCH  30  31
ENDBRANCH   1  30
TORSDOF 16
ENDMDL
MODEL 6
REMARK VINA RESULT:    -7.352      3.471      8.879
REMARK INTER + INTRA:         -14.786
REMARK INTER:                 -12.753
REMARK INTRA:                  -2.033
REMARK UNBOUND:                -0.987
REMARK  Name = ZINC000085340959
REMARK  19 active torsions:
REMARK  status: ('A' for Active; 'I' for Inactive)
REMARK    1  A    between atoms: C_1  and  C_2
REMARK    2  A    between atoms: C_2  and  C_3
REMARK    3  A    between atoms: C_3  and  C_4
REMARK    4  A    between atoms: C_4  and  C_5
REMARK    5  A    between atoms: C_5  and  C_6
REMARK    6  A    between atoms: C_6  and  C_7
REMARK    7  A    between atoms: C_7  and  C_8
REMARK    8  A    between atoms: C_8  and  C_9
REMARK    9  A    between atoms: C_9  and  C_10
REMARK   10  A    between atoms: C_10  and  C_11
REMARK   11  A    between atoms: C_11  and  C_12
REMARK   12  A    between atoms: C_13  and  O_14
REMARK   13  A    between atoms: C_15  and  O_16
REMARK   14  A    between atoms: C_22  and  C_23
REMARK   15  A    between atoms: N_25  and  CA_26
REMARK   16  A    between atoms: CA_26  and  C_27
REMARK   17  A    between atoms: CA_26  and  CB_30
REMARK   18  A    between atoms: CB_30  and  CG1_31
REMARK   19  A    between atoms: CB_30  and  CG2_32
REMARK                            x       y       z     vdW  Elec       q    Type
REMARK                         _______ _______ _______ _____ _____    ______ ____
ROOT
ATOM      1  C   UNK A   0       3.788   2.584 -22.796  0.00  0.00    +0.025 A 
ATOM      2  C   UNK A   0       4.478   1.483 -22.780  0.00  0.00    +0.164 A 
ATOM      3  C   UNK A   0       5.756   1.516 -22.541  0.00  0.00    +0.161 A 
ATOM      4  C   UNK A   0       6.344   2.654 -22.316  0.00  0.00    +0.079 A 
ATOM      5  C   UNK A   0       5.656   3.755 -22.331  0.00  0.00    +0.094 A 
ATOM      6  N   UNK A   0       6.245   4.892 -22.107  0.00  0.00    -0.243 NA
ATOM      7  C   UNK A   0       5.558   5.996 -22.122  0.00  0.00    +0.091 A 
ATOM      8  C   UNK A   0       6.147   7.132 -21.897  0.00  0.00    +0.043 A 
ATOM      9  C   UNK A   0       5.461   8.236 -21.912  0.00  0.00    +0.039 A 
ATOM     10  C   UNK A   0       4.184   8.201 -22.152  0.00  0.00    +0.015 A 
ATOM     11  C   UNK A   0       3.592   7.066 -22.377  0.00  0.00    +0.030 A 
ATOM     12  C   UNK A   0       4.281   5.961 -22.361  0.00  0.00    +0.090 A 
ATOM     13  N   UNK A   0       3.690   4.825 -22.586  0.00  0.00    -0.243 NA
ATOM     14  C   UNK A   0       4.379   3.722 -22.571  0.00  0.00    +0.097 A 
ENDROOT
BRANCH   9  15
ATOM     15  C   UNK A   0       6.050   9.371 -21.687  0.00  0.00    +0.245 C 
ATOM     16  N   VAL A   1       6.001  10.316 -22.578  0.00  0.00    -0.303 N 
ATOM     17  H   VAL A   1       5.517  10.171 -23.423  0.00  0.00    +0.150 HD
ATOM     18  O   UNK A   0       6.689   9.563 -20.571  0.00  0.00    -0.270 OA
BRANCH  16  19
ATOM     19  CA  VAL A   1       6.591  11.453 -22.354  0.00  0.00    +0.121 C 
BRANCH  19  20
ATOM     20  C   VAL A   1       6.047  12.321 -21.553  0.00  0.00    +0.062 C 
ATOM     21  OXT VAL A   1       4.810  12.680 -21.728  0.00  0.00    -0.548 OA
ATOM     22  O   VAL A   1       6.740  12.830 -20.579  0.00  0.00    -0.548 OA
ENDBRANCH  19  20
BRANCH  19  23
ATOM     23  CB  VAL A   1       7.726  11.722 -22.929  0.00  0.00    +0.009 C 
ATOM     24  CG2 VAL A   1       8.802  11.087 -22.571  0.00  0.00    +0.009 C 
ATOM     25  CG1 VAL A   1       7.784  12.625 -23.862  0.00  0.00    +0.009 C 
ENDBRANCH  19  23
ENDBRANCH  16  19
ENDBRANCH   9  15
BRANCH   2  26
ATOM     26  O   UNK A   0       3.890   0.344 -23.005  0.00  0.00    -0.503 OA
ATOM     27  H   UNK A   0       3.709  -0.237 -22.293  0.00  0.00    +0.292 HD
ENDBRANCH   2  26
BRANCH   3  28
ATOM     28  O   UNK A   0       6.444   0.414 -22.525  0.00  0.00    -0.503 OA
ATOM     29  H   UNK A   0       6.291  -0.224 -21.857  0.00  0.00    +0.292 HD
ENDBRANCH   3  28
BRANCH   1  30
ATOM     30  C   UNK A   0       2.513   2.551 -23.036  0.00  0.00    +0.041 C 
BRANCH  30  31
ATOM     31  C   UNK A   0       1.673   2.349 -22.064  0.00  0.00    +0.005 C 
BRANCH  31  32
ATOM     32  C   UNK A   0       0.684   1.519 -22.220  0.00  0.00    +0.000 C 
BRANCH  32  33
ATOM     33  C   UNK A   0      -0.294   1.504 -21.362  0.00  0.00    +0.000 C 
BRANCH  33  34
ATOM     34  C   UNK A   0      -1.484   1.879 -21.728  0.00  0.00    +0.000 C 
BRANCH  34  35
ATOM     35  C   UNK A   0      -1.920   3.061 -21.407  0.00  0.00    +0.000 C 
BRANCH  35  36
ATOM     36  C   UNK A   0      -2.026   3.983 -22.317  0.00  0.00    -0.000 C 
BRANCH  36  37
ATOM     37  C   UNK A   0      -1.079   4.863 -22.463  0.00  0.00    -0.000 C 
BRANCH  37  38
ATOM     38  C   UNK A   0      -0.476   4.984 -23.609  0.00  0.00    -0.000 C 
BRANCH  38  40
ATOM     39  C   UNK A   0       0.225   3.788 -25.384  0.00  0.00    +0.004 C 
ATOM     40  C   UNK A   0      -0.723   4.140 -24.567  0.00  0.00    -0.003 C 
ENDBRANCH  38  40
ENDBRANCH  37  38
ENDBRANCH  36  37
ENDBRANCH  35  36
ENDBRANCH  34  35
ENDBRANCH  33  34
ENDBRANCH  32  33
ENDBRANCH  31  32
ENDBRANCH  30  31
ENDBRANCH   1  30
TORSDOF 16
ENDMDL
MODEL 7
REMARK VINA RESULT:    -7.195      3.391      9.189
REMARK INTER + INTRA:         -14.491
REMARK INTER:                 -13.385
REMARK INTRA:                  -1.106
REMARK UNBOUND:                -0.987
REMARK  Name = ZINC000085340959
REMARK  19 active torsions:
REMARK  status: ('A' for Active; 'I' for Inactive)
REMARK    1  A    between atoms: C_1  and  C_2
REMARK    2  A    between atoms: C_2  and  C_3
REMARK    3  A    between atoms: C_3  and  C_4
REMARK    4  A    between atoms: C_4  and  C_5
REMARK    5  A    between atoms: C_5  and  C_6
REMARK    6  A    between atoms: C_6  and  C_7
REMARK    7  A    between atoms: C_7  and  C_8
REMARK    8  A    between atoms: C_8  and  C_9
REMARK    9  A    between atoms: C_9  and  C_10
REMARK   10  A    between atoms: C_10  and  C_11
REMARK   11  A    between atoms: C_11  and  C_12
REMARK   12  A    between atoms: C_13  and  O_14
REMARK   13  A    between atoms: C_15  and  O_16
REMARK   14  A    between atoms: C_22  and  C_23
REMARK   15  A    between atoms: N_25  and  CA_26
REMARK   16  A    between atoms: CA_26  and  C_27
REMARK   17  A    between atoms: CA_26  and  CB_30
REMARK   18  A    between atoms: CB_30  and  CG1_31
REMARK   19  A    between atoms: CB_30  and  CG2_32
REMARK                            x       y       z     vdW  Elec       q    Type
REMARK                         _______ _______ _______ _____ _____    ______ ____
ROOT
ATOM      1  C   UNK A   0       3.624   2.624 -22.902  0.00  0.00    +0.025 A 
ATOM      2  C   UNK A   0       4.274   1.501 -22.850  0.00  0.00    +0.164 A 
ATOM      3  C   UNK A   0       5.536   1.490 -22.533  0.00  0.00    +0.161 A 
ATOM      4  C   UNK A   0       6.147   2.607 -22.268  0.00  0.00    +0.079 A 
ATOM      5  C   UNK A   0       5.498   3.731 -22.320  0.00  0.00    +0.094 A 
ATOM      6  N   UNK A   0       6.111   4.846 -22.054  0.00  0.00    -0.243 NA
ATOM      7  C   UNK A   0       5.463   5.972 -22.106  0.00  0.00    +0.091 A 
ATOM      8  C   UNK A   0       6.075   7.087 -21.840  0.00  0.00    +0.043 A 
ATOM      9  C   UNK A   0       5.428   8.214 -21.891  0.00  0.00    +0.039 A 
ATOM     10  C   UNK A   0       4.167   8.223 -22.208  0.00  0.00    +0.015 A 
ATOM     11  C   UNK A   0       3.553   7.109 -22.474  0.00  0.00    +0.030 A 
ATOM     12  C   UNK A   0       4.202   5.982 -22.422  0.00  0.00    +0.090 A 
ATOM     13  N   UNK A   0       3.588   4.867 -22.688  0.00  0.00    -0.243 NA
ATOM     14  C   UNK A   0       4.238   3.741 -22.636  0.00  0.00    +0.097 A 
ENDROOT
BRANCH   9  15
ATOM     15  C   UNK A   0       6.040   9.328 -21.626  0.00  0.00    +0.245 C 
ATOM     16  N   VAL A   1       6.116  10.259 -22.530  0.00  0.00    -0.303 N 
ATOM     17  H   VAL A   1       5.709  10.120 -23.416  0.00  0.00    +0.150 HD
ATOM     18  O   UNK A   0       6.578   9.513 -20.457  0.00  0.00    -0.270 OA
BRANCH  16  19
ATOM     19  CA  VAL A   1       6.729  11.375 -22.265  0.00  0.00    +0.121 C 
BRANCH  19  20
ATOM     20  C   VAL A   1       6.143  12.283 -21.542  0.00  0.00    +0.062 C 
ATOM     21  OXT VAL A   1       6.798  12.883 -20.594  0.00  0.00    -0.548 OA
ATOM     22  O   VAL A   1       4.900  12.591 -21.769  0.00  0.00    -0.548 OA
ENDBRANCH  19  20
BRANCH  19  23
ATOM     23  CB  VAL A   1       7.928  11.583 -22.722  0.00  0.00    +0.009 C 
ATOM     24  CG2 VAL A   1       8.953  11.052 -22.122  0.00  0.00    +0.009 C 
ATOM     25  CG1 VAL A   1       8.103  12.321 -23.777  0.00  0.00    +0.009 C 
ENDBRANCH  19  23
ENDBRANCH  16  19
ENDBRANCH   9  15
BRANCH   2  26
ATOM     26  O   UNK A   0       3.663   0.383 -23.115  0.00  0.00    -0.503 OA
ATOM     27  H   UNK A   0       3.518  -0.244 -22.434  0.00  0.00    +0.292 HD
ENDBRANCH   2  26
BRANCH   3  28
ATOM     28  O   UNK A   0       6.185   0.366 -22.482  0.00  0.00    -0.503 OA
ATOM     29  H   UNK A   0       6.942   0.287 -21.936  0.00  0.00    +0.292 HD
ENDBRANCH   3  28
BRANCH   1  30
ATOM     30  C   UNK A   0       2.364   2.635 -23.218  0.00  0.00    +0.041 C 
BRANCH  30  31
ATOM     31  C   UNK A   0       1.465   2.361 -22.320  0.00  0.00    +0.005 C 
BRANCH  31  32
ATOM     32  C   UNK A   0       0.209   2.314 -22.650  0.00  0.00    +0.000 C 
BRANCH  32  33
ATOM     33  C   UNK A   0      -0.435   3.412 -22.917  0.00  0.00    +0.000 C 
BRANCH  33  34
ATOM     34  C   UNK A   0      -1.078   3.531 -24.041  0.00  0.00    +0.000 C 
BRANCH  34  35
ATOM     35  C   UNK A   0      -2.314   3.935 -24.043  0.00  0.00    +0.000 C 
BRANCH  35  36
ATOM     36  C   UNK A   0      -3.257   3.142 -23.627  0.00  0.00    -0.000 C 
BRANCH  36  37
ATOM     37  C   UNK A   0      -4.239   3.617 -22.920  0.00  0.00    -0.000 C 
BRANCH  37  38
ATOM     38  C   UNK A   0      -4.580   3.035 -21.807  0.00  0.00    -0.000 C 
BRANCH  38  40
ATOM     39  C   UNK A   0      -3.147   3.761 -20.230  0.00  0.00    +0.004 C 
ATOM     40  C   UNK A   0      -3.680   2.785 -20.902  0.00  0.00    -0.003 C 
ENDBRANCH  38  40
ENDBRANCH  37  38
ENDBRANCH  36  37
ENDBRANCH  35  36
ENDBRANCH  34  35
ENDBRANCH  33  34
ENDBRANCH  32  33
ENDBRANCH  31  32
ENDBRANCH  30  31
ENDBRANCH   1  30
TORSDOF 16
ENDMDL
MODEL 8
REMARK VINA RESULT:    -7.153      2.544      5.323
REMARK INTER + INTRA:         -14.412
REMARK INTER:                 -13.049
REMARK INTRA:                  -1.363
REMARK UNBOUND:                -0.987
REMARK  Name = ZINC000085340959
REMARK  19 active torsions:
REMARK  status: ('A' for Active; 'I' for Inactive)
REMARK    1  A    between atoms: C_1  and  C_2
REMARK    2  A    between atoms: C_2  and  C_3
REMARK    3  A    between atoms: C_3  and  C_4
REMARK    4  A    between atoms: C_4  and  C_5
REMARK    5  A    between atoms: C_5  and  C_6
REMARK    6  A    between atoms: C_6  and  C_7
REMARK    7  A    between atoms: C_7  and  C_8
REMARK    8  A    between atoms: C_8  and  C_9
REMARK    9  A    between atoms: C_9  and  C_10
REMARK   10  A    between atoms: C_10  and  C_11
REMARK   11  A    between atoms: C_11  and  C_12
REMARK   12  A    between atoms: C_13  and  O_14
REMARK   13  A    between atoms: C_15  and  O_16
REMARK   14  A    between atoms: C_22  and  C_23
REMARK   15  A    between atoms: N_25  and  CA_26
REMARK   16  A    between atoms: CA_26  and  C_27
REMARK   17  A    between atoms: CA_26  and  CB_30
REMARK   18  A    between atoms: CB_30  and  CG1_31
REMARK   19  A    between atoms: CB_30  and  CG2_32
REMARK                            x       y       z     vdW  Elec       q    Type
REMARK                         _______ _______ _______ _____ _____    ______ ____
ROOT
ATOM      1  C   UNK A   0       6.279   6.278 -22.424  0.00  0.00    +0.025 A 
ATOM      2  C   UNK A   0       6.592   7.364 -21.783  0.00  0.00    +0.164 A 
ATOM      3  C   UNK A   0       5.657   8.146 -21.327  0.00  0.00    +0.161 A 
ATOM      4  C   UNK A   0       4.408   7.839 -21.514  0.00  0.00    +0.079 A 
ATOM      5  C   UNK A   0       4.093   6.754 -22.155  0.00  0.00    +0.094 A 
ATOM      6  N   UNK A   0       2.843   6.450 -22.341  0.00  0.00    -0.243 NA
ATOM      7  C   UNK A   0       2.527   5.364 -22.983  0.00  0.00    +0.091 A 
ATOM      8  C   UNK A   0       1.278   5.059 -23.169  0.00  0.00    +0.043 A 
ATOM      9  C   UNK A   0       0.960   3.974 -23.810  0.00  0.00    +0.039 A 
ATOM     10  C   UNK A   0       1.895   3.193 -24.265  0.00  0.00    +0.015 A 
ATOM     11  C   UNK A   0       3.146   3.496 -24.080  0.00  0.00    +0.030 A 
ATOM     12  C   UNK A   0       3.462   4.584 -23.437  0.00  0.00    +0.090 A 
ATOM     13  N   UNK A   0       4.712   4.887 -23.252  0.00  0.00    -0.243 NA
ATOM     14  C   UNK A   0       5.027   5.973 -22.610  0.00  0.00    +0.097 A 
ENDROOT
BRANCH   9  15
ATOM     15  C   UNK A   0      -0.288   3.670 -23.996  0.00  0.00    +0.245 C 
ATOM     16  N   VAL A   1      -1.216   4.541 -23.732  0.00  0.00    -0.303 N 
ATOM     17  H   VAL A   1      -0.972   5.432 -23.391  0.00  0.00    +0.150 HD
ATOM     18  O   UNK A   0      -0.612   2.493 -24.446  0.00  0.00    -0.270 OA
BRANCH  16  19
ATOM     19  CA  VAL A   1      -2.466   4.237 -23.918  0.00  0.00    +0.121 C 
BRANCH  19  20
ATOM     20  C   VAL A   1      -3.008   4.400 -25.089  0.00  0.00    +0.062 C 
ATOM     21  OXT VAL A   1      -3.923   5.306 -25.262  0.00  0.00    -0.548 OA
ATOM     22  O   VAL A   1      -2.634   3.655 -26.086  0.00  0.00    -0.548 OA
ENDBRANCH  19  20
BRANCH  19  23
ATOM     23  CB  VAL A   1      -3.176   3.771 -22.933  0.00  0.00    +0.009 C 
ATOM     24  CG2 VAL A   1      -2.802   3.983 -21.706  0.00  0.00    +0.009 C 
ATOM     25  CG1 VAL A   1      -4.258   3.092 -23.176  0.00  0.00    +0.009 C 
ENDBRANCH  19  23
ENDBRANCH  16  19
ENDBRANCH   9  15
BRANCH   2  26
ATOM     26  O   UNK A   0       7.842   7.671 -21.595  0.00  0.00    -0.503 OA
ATOM     27  H   UNK A   0       8.214   7.616 -20.737  0.00  0.00    +0.292 HD
ENDBRANCH   2  26
BRANCH   3  28
ATOM     28  O   UNK A   0       5.972   9.231 -20.686  0.00  0.00    -0.503 OA
ATOM     29  H   UNK A   0       5.429   9.991 -20.758  0.00  0.00    +0.292 HD
ENDBRANCH   3  28
BRANCH   1  30
ATOM     30  C   UNK A   0       7.212   5.498 -22.879  0.00  0.00    +0.041 C 
BRANCH  30  31
ATOM     31  C   UNK A   0       7.487   4.386 -22.264  0.00  0.00    +0.005 C 
BRANCH  31  32
ATOM     32  C   UNK A   0       7.248   3.246 -22.841  0.00  0.00    +0.000 C 
BRANCH  32  33
ATOM     33  C   UNK A   0       6.376   2.428 -22.329  0.00  0.00    +0.000 C 
BRANCH  33  34
ATOM     34  C   UNK A   0       6.020   2.553 -21.084  0.00  0.00    +0.000 C 
BRANCH  34  35
ATOM     35  C   UNK A   0       5.018   1.866 -20.623  0.00  0.00    +0.000 C 
BRANCH  35  36
ATOM     36  C   UNK A   0       3.846   1.975 -21.176  0.00  0.00    -0.000 C 
BRANCH  36  37
ATOM     37  C   UNK A   0       2.956   1.044 -21.002  0.00  0.00    -0.000 C 
BRANCH  37  38
ATOM     38  C   UNK A   0       1.804   1.125 -21.601  0.00  0.00    -0.000 C 
BRANCH  38  40
ATOM     39  C   UNK A   0      -0.424   1.268 -21.313  0.00  0.00    +0.004 C 
ATOM     40  C   UNK A   0       0.780   1.626 -20.977  0.00  0.00    -0.003 C 
ENDBRANCH  38  40
ENDBRANCH  37  38
ENDBRANCH  36  37
ENDBRANCH  35  36
ENDBRANCH  34  35
ENDBRANCH  33  34
ENDBRANCH  32  33
ENDBRANCH  31  32
ENDBRANCH  30  31
ENDBRANCH   1  30
TORSDOF 16
ENDMDL
MODEL 9
REMARK VINA RESULT:    -6.424      2.578      5.604
REMARK INTER + INTRA:         -13.045
REMARK INTER:                 -12.057
REMARK INTRA:                  -0.987
REMARK UNBOUND:                -0.987
REMARK  Name = ZINC000085340959
REMARK  19 active torsions:
REMARK  status: ('A' for Active; 'I' for Inactive)
REMARK    1  A    between atoms: C_1  and  C_2
REMARK    2  A    between atoms: C_2  and  C_3
REMARK    3  A    between atoms: C_3  and  C_4
REMARK    4  A    between atoms: C_4  and  C_5
REMARK    5  A    between atoms: C_5  and  C_6
REMARK    6  A    between atoms: C_6  and  C_7
REMARK    7  A    between atoms: C_7  and  C_8
REMARK    8  A    between atoms: C_8  and  C_9
REMARK    9  A    between atoms: C_9  and  C_10
REMARK   10  A    between atoms: C_10  and  C_11
REMARK   11  A    between atoms: C_11  and  C_12
REMARK   12  A    between atoms: C_13  and  O_14
REMARK   13  A    between atoms: C_15  and  O_16
REMARK   14  A    between atoms: C_22  and  C_23
REMARK   15  A    between atoms: N_25  and  CA_26
REMARK   16  A    between atoms: CA_26  and  C_27
REMARK   17  A    between atoms: CA_26  and  CB_30
REMARK   18  A    between atoms: CB_30  and  CG1_31
REMARK   19  A    between atoms: CB_30  and  CG2_32
REMARK                            x       y       z     vdW  Elec       q    Type
REMARK                         _______ _______ _______ _____ _____    ______ ____
ROOT
ATOM      1  C   UNK A   0       6.914   6.287 -22.127  0.00  0.00    +0.025 A 
ATOM      2  C   UNK A   0       7.410   7.345 -21.560  0.00  0.00    +0.164 A 
ATOM      3  C   UNK A   0       6.625   8.306 -21.168  0.00  0.00    +0.161 A 
ATOM      4  C   UNK A   0       5.340   8.205 -21.344  0.00  0.00    +0.079 A 
ATOM      5  C   UNK A   0       4.843   7.148 -21.911  0.00  0.00    +0.094 A 
ATOM      6  N   UNK A   0       3.558   7.049 -22.087  0.00  0.00    -0.243 NA
ATOM      7  C   UNK A   0       3.058   5.991 -22.654  0.00  0.00    +0.091 A 
ATOM      8  C   UNK A   0       1.775   5.893 -22.830  0.00  0.00    +0.043 A 
ATOM      9  C   UNK A   0       1.274   4.835 -23.396  0.00  0.00    +0.039 A 
ATOM     10  C   UNK A   0       2.060   3.877 -23.787  0.00  0.00    +0.015 A 
ATOM     11  C   UNK A   0       3.344   3.973 -23.613  0.00  0.00    +0.030 A 
ATOM     12  C   UNK A   0       3.844   5.033 -23.045  0.00  0.00    +0.090 A 
ATOM     13  N   UNK A   0       5.129   5.130 -22.870  0.00  0.00    -0.243 NA
ATOM     14  C   UNK A   0       5.627   6.188 -22.302  0.00  0.00    +0.097 A 
ENDROOT
BRANCH   9  15
ATOM     15  C   UNK A   0      -0.009   4.737 -23.572  0.00  0.00    +0.245 C 
ATOM     16  N   VAL A   1      -0.555   3.570 -23.741  0.00  0.00    -0.303 N 
ATOM     17  H   VAL A   1       0.005   2.760 -23.736  0.00  0.00    +0.150 HD
ATOM     18  O   UNK A   0      -0.748   5.807 -23.578  0.00  0.00    -0.270 OA
BRANCH  16  19
ATOM     19  CA  VAL A   1      -1.839   3.471 -23.916  0.00  0.00    +0.121 C 
BRANCH  19  20
ATOM     20  C   VAL A   1      -2.371   3.838 -25.045  0.00  0.00    +0.062 C 
ATOM     21  OXT VAL A   1      -1.937   3.336 -26.162  0.00  0.00    -0.548 OA
ATOM     22  O   VAL A   1      -3.338   4.706 -25.055  0.00  0.00    -0.548 OA
ENDBRANCH  19  20
BRANCH  19  23
ATOM     23  CB  VAL A   1      -2.592   3.007 -22.964  0.00  0.00    +0.009 C 
ATOM     24  CG2 VAL A   1      -3.883   3.151 -23.027  0.00  0.00    +0.009 C 
ATOM     25  CG1 VAL A   1      -2.055   2.398 -21.948  0.00  0.00    +0.009 C 
ENDBRANCH  19  23
ENDBRANCH  16  19
ENDBRANCH   9  15
BRANCH   2  26
ATOM     26  O   UNK A   0       8.695   7.446 -21.383  0.00  0.00    -0.503 OA
ATOM     27  H   UNK A   0       9.031   7.982 -20.692  0.00  0.00    +0.292 HD
ENDBRANCH   2  26
BRANCH   3  28
ATOM     28  O   UNK A   0       7.122   9.363 -20.601  0.00  0.00    -0.503 OA
ATOM     29  H   UNK A   0       6.554  10.049 -20.310  0.00  0.00    +0.292 HD
ENDBRANCH   3  28
BRANCH   1  30
ATOM     30  C   UNK A   0       7.697   5.328 -22.518  0.00  0.00    +0.041 C 
BRANCH  30  31
ATOM     31  C   UNK A   0       7.813   5.057 -23.784  0.00  0.00    +0.005 C 
BRANCH  31  32
ATOM     32  C   UNK A   0       8.022   3.835 -24.172  0.00  0.00    +0.000 C 
BRANCH  32  33
ATOM     33  C   UNK A   0       7.779   2.844 -23.365  0.00  0.00    +0.000 C 
BRANCH  33  34
ATOM     34  C   UNK A   0       6.597   2.304 -23.338  0.00  0.00    +0.000 C 
BRANCH  34  35
ATOM     35  C   UNK A   0       6.076   1.937 -22.204  0.00  0.00    +0.000 C 
BRANCH  35  36
ATOM     36  C   UNK A   0       5.245   0.938 -22.164  0.00  0.00    -0.000 C 
BRANCH  36  37
ATOM     37  C   UNK A   0       4.387   0.845 -21.192  0.00  0.00    -0.000 C 
BRANCH  37  38
ATOM     38  C   UNK A   0       3.481   1.766 -21.035  0.00  0.00    -0.000 C 
BRANCH  38  40
ATOM     39  C   UNK A   0       1.362   1.317 -21.649  0.00  0.00    +0.004 C 
ATOM     40  C   UNK A   0       2.265   1.433 -20.720  0.00  0.00    -0.003 C 
ENDBRANCH  38  40
ENDBRANCH  37  38
ENDBRANCH  36  37
ENDBRANCH  35  36
ENDBRANCH  34  35
ENDBRANCH  33  34
ENDBRANCH  32  33
ENDBRANCH  31  32
ENDBRANCH  30  31
ENDBRANCH   1  30
TORSDOF 16
ENDMDL
