MODEL 1
REMARK VINA RESULT:    -7.283      0.000      0.000
REMARK INTER + INTRA:          -7.496
REMARK INTER:                  -7.496
REMARK INTRA:                   0.000
REMARK UNBOUND:                 0.000
REMARK  Name = ZINC000000058111
REMARK  1 active torsions:
REMARK  status: ('A' for Active; 'I' for Inactive)
REMARK    1  A    between atoms: C_8  and  O_9
REMARK                            x       y       z     vdW  Elec       q    Type
REMARK                         _______ _______ _______ _____ _____    ______ ____
ROOT
ATOM      1  O   UNL     1      -4.436   2.250 -20.428  0.00  0.00    -0.245 OA
ATOM      2  C   UNL     1      -4.424   2.717 -21.641  0.00  0.00    +0.337 A 
ATOM      3  C   UNL     1      -5.488   3.281 -22.131  0.00  0.00    +0.092 A 
ATOM      4  C   UNL     1      -5.477   3.748 -23.344  0.00  0.00    +0.018 A 
ATOM      5  C   UNL     1      -4.401   3.650 -24.068  0.00  0.00    +0.018 A 
ATOM      6  C   UNL     1      -4.389   4.117 -25.281  0.00  0.00    +0.015 A 
ATOM      7  C   UNL     1      -3.313   4.019 -26.004  0.00  0.00    +0.046 A 
ATOM      8  C   UNL     1      -2.250   3.455 -25.515  0.00  0.00    +0.120 A 
ATOM      9  C   UNL     1      -2.261   2.988 -24.302  0.00  0.00    +0.092 A 
ATOM     10  C   UNL     1      -3.337   3.086 -23.578  0.00  0.00    +0.143 A 
ATOM     11  O   UNL     1      -3.349   2.619 -22.365  0.00  0.00    -0.422 OA
ENDROOT
BRANCH   8  12
ATOM     12  O   UNL     1      -1.174   3.357 -26.238  0.00  0.00    -0.507 OA
ATOM     13  H   UNL     1      -1.241   3.168 -27.153  0.00  0.00    +0.292 HD
ENDBRANCH   8  12
TORSDOF 1
ENDMDL
MODEL 2
REMARK VINA RESULT:    -7.072      2.205      3.236
REMARK INTER + INTRA:          -7.278
REMARK INTER:                  -7.278
REMARK INTRA:                   0.000
REMARK UNBOUND:                 0.000
REMARK  Name = ZINC000000058111
REMARK  1 active torsions:
REMARK  status: ('A' for Active; 'I' for Inactive)
REMARK    1  A    between atoms: C_8  and  O_9
REMARK                            x       y       z     vdW  Elec       q    Type
REMARK                         _______ _______ _______ _____ _____    ______ ____
ROOT
ATOM      1  O   UNL     1       0.393   1.711 -22.906  0.00  0.00    -0.245 OA
ATOM      2  C   UNL     1      -0.832   2.136 -22.818  0.00  0.00    +0.337 A 
ATOM      3  C   UNL     1      -1.461   2.077 -21.681  0.00  0.00    +0.092 A 
ATOM      4  C   UNL     1      -2.686   2.501 -21.594  0.00  0.00    +0.018 A 
ATOM      5  C   UNL     1      -3.283   2.986 -22.642  0.00  0.00    +0.018 A 
ATOM      6  C   UNL     1      -4.508   3.410 -22.555  0.00  0.00    +0.015 A 
ATOM      7  C   UNL     1      -5.105   3.894 -23.603  0.00  0.00    +0.046 A 
ATOM      8  C   UNL     1      -4.476   3.953 -24.739  0.00  0.00    +0.120 A 
ATOM      9  C   UNL     1      -3.251   3.529 -24.827  0.00  0.00    +0.092 A 
ATOM     10  C   UNL     1      -2.655   3.045 -23.779  0.00  0.00    +0.143 A 
ATOM     11  O   UNL     1      -1.429   2.620 -23.866  0.00  0.00    -0.422 OA
ENDROOT
BRANCH   8  12
ATOM     12  O   UNL     1      -5.073   4.437 -25.788  0.00  0.00    -0.507 OA
ATOM     13  H   UNL     1      -4.670   4.366 -26.631  0.00  0.00    +0.292 HD
ENDBRANCH   8  12
TORSDOF 1
ENDMDL
MODEL 3
REMARK VINA RESULT:    -6.936      1.595      2.487
REMARK INTER + INTRA:          -7.139
REMARK INTER:                  -7.139
REMARK INTRA:                   0.000
REMARK UNBOUND:                 0.000
REMARK  Name = ZINC000000058111
REMARK  1 active torsions:
REMARK  status: ('A' for Active; 'I' for Inactive)
REMARK    1  A    between atoms: C_8  and  O_9
REMARK                            x       y       z     vdW  Elec       q    Type
REMARK                         _______ _______ _______ _____ _____    ______ ____
ROOT
ATOM      1  O   UNL     1      -6.020   3.387 -22.024  0.00  0.00    -0.245 OA
ATOM      2  C   UNL     1      -4.724   3.394 -22.118  0.00  0.00    +0.337 A 
ATOM      3  C   UNL     1      -3.995   3.459 -21.043  0.00  0.00    +0.092 A 
ATOM      4  C   UNL     1      -2.698   3.465 -21.137  0.00  0.00    +0.018 A 
ATOM      5  C   UNL     1      -2.131   3.407 -22.306  0.00  0.00    +0.018 A 
ATOM      6  C   UNL     1      -0.834   3.413 -22.400  0.00  0.00    +0.015 A 
ATOM      7  C   UNL     1      -0.267   3.355 -23.568  0.00  0.00    +0.046 A 
ATOM      8  C   UNL     1      -0.997   3.290 -24.642  0.00  0.00    +0.120 A 
ATOM      9  C   UNL     1      -2.293   3.283 -24.548  0.00  0.00    +0.092 A 
ATOM     10  C   UNL     1      -2.860   3.342 -23.380  0.00  0.00    +0.143 A 
ATOM     11  O   UNL     1      -4.157   3.335 -23.286  0.00  0.00    -0.422 OA
ENDROOT
BRANCH   8  12
ATOM     12  O   UNL     1      -0.430   3.231 -25.810  0.00  0.00    -0.507 OA
ATOM     13  H   UNL     1      -0.444   3.978 -26.376  0.00  0.00    +0.292 HD
ENDBRANCH   8  12
TORSDOF 1
ENDMDL
MODEL 4
REMARK VINA RESULT:    -6.906      2.055      4.252
REMARK INTER + INTRA:          -7.108
REMARK INTER:                  -7.108
REMARK INTRA:                   0.000
REMARK UNBOUND:                 0.000
REMARK  Name = ZINC000000058111
REMARK  1 active torsions:
REMARK  status: ('A' for Active; 'I' for Inactive)
REMARK    1  A    between atoms: C_8  and  O_9
REMARK                            x       y       z     vdW  Elec       q    Type
REMARK                         _______ _______ _______ _____ _____    ______ ____
ROOT
ATOM      1  O   UNL     1       0.585   2.535 -24.297  0.00  0.00    -0.245 OA
ATOM      2  C   UNL     1      -0.444   2.575 -23.504  0.00  0.00    +0.337 A 
ATOM      3  C   UNL     1      -0.322   2.212 -22.262  0.00  0.00    +0.092 A 
ATOM      4  C   UNL     1      -1.351   2.253 -21.469  0.00  0.00    +0.018 A 
ATOM      5  C   UNL     1      -2.503   2.656 -21.918  0.00  0.00    +0.018 A 
ATOM      6  C   UNL     1      -3.532   2.696 -21.125  0.00  0.00    +0.015 A 
ATOM      7  C   UNL     1      -4.683   3.099 -21.575  0.00  0.00    +0.046 A 
ATOM      8  C   UNL     1      -4.805   3.461 -22.817  0.00  0.00    +0.120 A 
ATOM      9  C   UNL     1      -3.776   3.421 -23.610  0.00  0.00    +0.092 A 
ATOM     10  C   UNL     1      -2.625   3.018 -23.161  0.00  0.00    +0.143 A 
ATOM     11  O   UNL     1      -1.595   2.978 -23.954  0.00  0.00    -0.422 OA
ENDROOT
BRANCH   8  12
ATOM     12  O   UNL     1      -5.957   3.864 -23.267  0.00  0.00    -0.507 OA
ATOM     13  H   UNL     1      -6.459   4.485 -22.777  0.00  0.00    +0.292 HD
ENDBRANCH   8  12
TORSDOF 1
ENDMDL
MODEL 5
REMARK VINA RESULT:    -6.875      1.669      3.775
REMARK INTER + INTRA:          -7.076
REMARK INTER:                  -7.076
REMARK INTRA:                   0.000
REMARK UNBOUND:                 0.000
REMARK  Name = ZINC000000058111
REMARK  1 active torsions:
REMARK  status: ('A' for Active; 'I' for Inactive)
REMARK    1  A    between atoms: C_8  and  O_9
REMARK                            x       y       z     vdW  Elec       q    Type
REMARK                         _______ _______ _______ _____ _____    ______ ____
ROOT
ATOM      1  O   UNL     1       0.494   2.035 -23.319  0.00  0.00    -0.245 OA
ATOM      2  C   UNL     1      -0.626   2.563 -23.715  0.00  0.00    +0.337 A 
ATOM      3  C   UNL     1      -0.702   3.125 -24.884  0.00  0.00    +0.092 A 
ATOM      4  C   UNL     1      -1.822   3.652 -25.280  0.00  0.00    +0.018 A 
ATOM      5  C   UNL     1      -2.867   3.617 -24.506  0.00  0.00    +0.018 A 
ATOM      6  C   UNL     1      -3.987   4.145 -24.902  0.00  0.00    +0.015 A 
ATOM      7  C   UNL     1      -5.031   4.110 -24.128  0.00  0.00    +0.046 A 
ATOM      8  C   UNL     1      -4.954   3.547 -22.958  0.00  0.00    +0.120 A 
ATOM      9  C   UNL     1      -3.834   3.020 -22.562  0.00  0.00    +0.092 A 
ATOM     10  C   UNL     1      -2.791   3.055 -23.336  0.00  0.00    +0.143 A 
ATOM     11  O   UNL     1      -1.670   2.528 -22.941  0.00  0.00    -0.422 OA
ENDROOT
BRANCH   8  12
ATOM     12  O   UNL     1      -5.998   3.512 -22.184  0.00  0.00    -0.507 OA
ATOM     13  H   UNL     1      -6.723   4.083 -22.350  0.00  0.00    +0.292 HD
ENDBRANCH   8  12
TORSDOF 1
ENDMDL
MODEL 6
REMARK VINA RESULT:    -6.786      2.164      3.189
REMARK INTER + INTRA:          -6.985
REMARK INTER:                  -6.985
REMARK INTRA:                   0.000
REMARK UNBOUND:                 0.000
REMARK  Name = ZINC000000058111
REMARK  1 active torsions:
REMARK  status: ('A' for Active; 'I' for Inactive)
REMARK    1  A    between atoms: C_8  and  O_9
REMARK                            x       y       z     vdW  Elec       q    Type
REMARK                         _______ _______ _______ _____ _____    ______ ____
ROOT
ATOM      1  O   UNL     1      -5.563   4.125 -23.884  0.00  0.00    -0.245 OA
ATOM      2  C   UNL     1      -4.540   3.625 -23.257  0.00  0.00    +0.337 A 
ATOM      3  C   UNL     1      -4.617   3.375 -21.983  0.00  0.00    +0.092 A 
ATOM      4  C   UNL     1      -3.594   2.875 -21.356  0.00  0.00    +0.018 A 
ATOM      5  C   UNL     1      -2.494   2.625 -22.002  0.00  0.00    +0.018 A 
ATOM      6  C   UNL     1      -1.471   2.125 -21.375  0.00  0.00    +0.015 A 
ATOM      7  C   UNL     1      -0.371   1.875 -22.021  0.00  0.00    +0.046 A 
ATOM      8  C   UNL     1      -0.294   2.125 -23.295  0.00  0.00    +0.120 A 
ATOM      9  C   UNL     1      -1.317   2.625 -23.922  0.00  0.00    +0.092 A 
ATOM     10  C   UNL     1      -2.417   2.875 -23.276  0.00  0.00    +0.143 A 
ATOM     11  O   UNL     1      -3.440   3.375 -23.903  0.00  0.00    -0.422 OA
ENDROOT
BRANCH   8  12
ATOM     12  O   UNL     1       0.806   1.875 -23.941  0.00  0.00    -0.507 OA
ATOM     13  H   UNL     1       1.178   1.016 -23.916  0.00  0.00    +0.292 HD
ENDBRANCH   8  12
TORSDOF 1
ENDMDL
MODEL 7
REMARK VINA RESULT:    -6.786      1.578      2.138
REMARK INTER + INTRA:          -6.985
REMARK INTER:                  -6.985
REMARK INTRA:                   0.000
REMARK UNBOUND:                 0.000
REMARK  Name = ZINC000000058111
REMARK  1 active torsions:
REMARK  status: ('A' for Active; 'I' for Inactive)
REMARK    1  A    between atoms: C_8  and  O_9
REMARK                            x       y       z     vdW  Elec       q    Type
REMARK                         _______ _______ _______ _____ _____    ______ ____
ROOT
ATOM      1  O   UNL     1      -6.168   3.371 -22.108  0.00  0.00    -0.245 OA
ATOM      2  C   UNL     1      -5.129   3.467 -22.884  0.00  0.00    +0.337 A 
ATOM      3  C   UNL     1      -5.216   4.110 -24.011  0.00  0.00    +0.092 A 
ATOM      4  C   UNL     1      -4.178   4.206 -24.786  0.00  0.00    +0.018 A 
ATOM      5  C   UNL     1      -3.051   3.660 -24.434  0.00  0.00    +0.018 A 
ATOM      6  C   UNL     1      -2.012   3.756 -25.210  0.00  0.00    +0.015 A 
ATOM      7  C   UNL     1      -0.886   3.210 -24.858  0.00  0.00    +0.046 A 
ATOM      8  C   UNL     1      -0.799   2.568 -23.731  0.00  0.00    +0.120 A 
ATOM      9  C   UNL     1      -1.838   2.472 -22.956  0.00  0.00    +0.092 A 
ATOM     10  C   UNL     1      -2.963   3.017 -23.308  0.00  0.00    +0.143 A 
ATOM     11  O   UNL     1      -4.003   2.921 -22.532  0.00  0.00    -0.422 OA
ENDROOT
BRANCH   8  12
ATOM     12  O   UNL     1       0.327   2.022 -23.380  0.00  0.00    -0.507 OA
ATOM     13  H   UNL     1       0.780   2.330 -22.619  0.00  0.00    +0.292 HD
ENDBRANCH   8  12
TORSDOF 1
ENDMDL
MODEL 8
REMARK VINA RESULT:    -6.489      1.637      3.754
REMARK INTER + INTRA:          -6.678
REMARK INTER:                  -6.678
REMARK INTRA:                   0.000
REMARK UNBOUND:                 0.000
REMARK  Name = ZINC000000058111
REMARK  1 active torsions:
REMARK  status: ('A' for Active; 'I' for Inactive)
REMARK    1  A    between atoms: C_8  and  O_9
REMARK                            x       y       z     vdW  Elec       q    Type
REMARK                         _______ _______ _______ _____ _____    ______ ____
ROOT
ATOM      1  O   UNL     1      -3.480   3.376 -27.099  0.00  0.00    -0.245 OA
ATOM      2  C   UNL     1      -3.603   3.364 -25.805  0.00  0.00    +0.337 A 
ATOM      3  C   UNL     1      -4.715   3.752 -25.254  0.00  0.00    +0.092 A 
ATOM      4  C   UNL     1      -4.838   3.739 -23.960  0.00  0.00    +0.018 A 
ATOM      5  C   UNL     1      -3.849   3.339 -23.217  0.00  0.00    +0.018 A 
ATOM      6  C   UNL     1      -3.972   3.326 -21.923  0.00  0.00    +0.015 A 
ATOM      7  C   UNL     1      -2.983   2.926 -21.180  0.00  0.00    +0.046 A 
ATOM      8  C   UNL     1      -1.871   2.538 -21.731  0.00  0.00    +0.120 A 
ATOM      9  C   UNL     1      -1.748   2.550 -23.025  0.00  0.00    +0.092 A 
ATOM     10  C   UNL     1      -2.737   2.951 -23.768  0.00  0.00    +0.143 A 
ATOM     11  O   UNL     1      -2.614   2.963 -25.063  0.00  0.00    -0.422 OA
ENDROOT
BRANCH   8  12
ATOM     12  O   UNL     1      -0.883   2.137 -20.989  0.00  0.00    -0.507 OA
ATOM     13  H   UNL     1      -0.100   1.811 -21.387  0.00  0.00    +0.292 HD
ENDBRANCH   8  12
TORSDOF 1
ENDMDL
MODEL 9
REMARK VINA RESULT:    -6.328      2.405      3.885
REMARK INTER + INTRA:          -6.513
REMARK INTER:                  -6.513
REMARK INTRA:                   0.000
REMARK UNBOUND:                 0.000
REMARK  Name = ZINC000000058111
REMARK  1 active torsions:
REMARK  status: ('A' for Active; 'I' for Inactive)
REMARK    1  A    between atoms: C_8  and  O_9
REMARK                            x       y       z     vdW  Elec       q    Type
REMARK                         _______ _______ _______ _____ _____    ______ ____
ROOT
ATOM      1  O   UNL     1      -5.113   3.746 -23.724  0.00  0.00    -0.245 OA
ATOM      2  C   UNL     1      -3.833   3.520 -23.710  0.00  0.00    +0.337 A 
ATOM      3  C   UNL     1      -3.094   3.902 -24.709  0.00  0.00    +0.092 A 
ATOM      4  C   UNL     1      -1.814   3.675 -24.695  0.00  0.00    +0.018 A 
ATOM      5  C   UNL     1      -1.273   3.066 -23.681  0.00  0.00    +0.018 A 
ATOM      6  C   UNL     1       0.007   2.839 -23.667  0.00  0.00    +0.015 A 
ATOM      7  C   UNL     1       0.548   2.231 -22.654  0.00  0.00    +0.046 A 
ATOM      8  C   UNL     1      -0.191   1.848 -21.655  0.00  0.00    +0.120 A 
ATOM      9  C   UNL     1      -1.471   2.075 -21.669  0.00  0.00    +0.092 A 
ATOM     10  C   UNL     1      -2.012   2.684 -22.682  0.00  0.00    +0.143 A 
ATOM     11  O   UNL     1      -3.292   2.911 -22.697  0.00  0.00    -0.422 OA
ENDROOT
BRANCH   8  12
ATOM     12  O   UNL     1       0.350   1.240 -20.642  0.00  0.00    -0.507 OA
ATOM     13  H   UNL     1       1.247   0.970 -20.682  0.00  0.00    +0.292 HD
ENDBRANCH   8  12
TORSDOF 1
ENDMDL
