MODEL 1
REMARK VINA RESULT:   -10.420      0.000      0.000
REMARK INTER + INTRA:         -11.739
REMARK INTER:                 -11.635
REMARK INTRA:                  -0.104
REMARK UNBOUND:                -0.101
REMARK  Name = ZINC000038637538
REMARK  4 active torsions:
REMARK  status: ('A' for Active; 'I' for Inactive)
REMARK    1  A    between atoms: C_1  and  O_2
REMARK    2  A    between atoms: O_2  and  C_3
REMARK    3  A    between atoms: C_8  and  O_9
REMARK    4  A    between atoms: N_18  and  C_19
REMARK                            x       y       z     vdW  Elec       q    Type
REMARK                         _______ _______ _______ _____ _____    ______ ____
ROOT
ATOM      1  C   UNL     1       0.942   2.186 -23.372  0.00  0.00    +0.162 A 
ATOM      2  C   UNL     1       0.891   1.808 -22.112  0.00  0.00    +0.050 A 
ATOM      3  C   UNL     1      -0.255   1.875 -21.417  0.00  0.00    +0.008 A 
ATOM      4  C   UNL     1      -1.476   2.368 -22.039  0.00  0.00    -0.034 A 
ATOM      5  C   UNL     1      -1.345   2.684 -23.164  0.00  0.00    +0.012 A 
ATOM      6  C   UNL     1      -2.118   3.079 -23.827  0.00  0.00    +0.034 C 
ATOM      7  C   UNL     1      -0.782   2.706 -23.684  0.00  0.00    +0.043 C 
ATOM      8  C   UNL     1      -0.273   2.196 -22.440  0.00  0.00    -0.026 C 
ATOM      9  C   UNL     1      -1.071   2.040 -21.304  0.00  0.00    -0.004 C 
ATOM     10  C   UNL     1      -2.053   2.309 -21.392  0.00  0.00    +0.005 C 
ATOM     11  C   UNL     1      -2.922   3.542 -24.681  0.00  0.00    +0.067 C 
ATOM     12  C   UNL     1      -4.169   3.708 -24.227  0.00  0.00    +0.133 C 
ATOM     13  N   UNL     1      -4.399   3.362 -22.929  0.00  0.00    +0.239 N 
ATOM     14  H   UNL     1      -4.803   3.178 -22.011  0.00  0.00    +0.204 HD
ATOM     15  C   UNL     1      -5.567   3.506 -22.465  0.00  0.00    +0.191 C 
ATOM     16  C   UNL     1      -3.368   2.906 -22.275  0.00  0.00    +0.096 C 
ATOM     17  C   UNL     1      -2.614   2.874 -22.769  0.00  0.00    -0.011 C 
ATOM     18  C   UNL     1      -2.917   2.561 -21.519  0.00  0.00    +0.094 C 
ATOM     19  C   UNL     1      -0.095   2.614 -23.930  0.00  0.00    +0.163 A 
ENDROOT
BRANCH   1  21
ATOM     20  C   UNL     1       2.968   1.508 -24.758  0.00  0.00    +0.277 C 
ATOM     21  O   UNL     1       1.976   2.251 -24.405  0.00  0.00    -0.491 OA
ENDBRANCH   1  21
BRANCH  19  22
ATOM     22  O   UNL     1       0.705   2.768 -25.065  0.00  0.00    -0.503 OA
ATOM     23  H   UNL     1       0.309   2.872 -25.907  0.00  0.00    +0.292 HD
ENDBRANCH  19  22
TORSDOF 2
ENDMDL
MODEL 2
REMARK VINA RESULT:   -10.301      1.012      1.235
REMARK INTER + INTRA:         -11.607
REMARK INTER:                 -11.507
REMARK INTRA:                  -0.099
REMARK UNBOUND:                -0.101
REMARK  Name = ZINC000038637538
REMARK  4 active torsions:
REMARK  status: ('A' for Active; 'I' for Inactive)
REMARK    1  A    between atoms: C_1  and  O_2
REMARK    2  A    between atoms: O_2  and  C_3
REMARK    3  A    between atoms: C_8  and  O_9
REMARK    4  A    between atoms: N_18  and  C_19
REMARK                            x       y       z     vdW  Elec       q    Type
REMARK                         _______ _______ _______ _____ _____    ______ ____
ROOT
ATOM      1  C   UNL     1       0.555   1.729 -22.516  0.00  0.00    +0.162 A 
ATOM      2  C   UNL     1      -0.020   1.712 -21.332  0.00  0.00    +0.050 A 
ATOM      3  C   UNL     1      -1.276   2.153 -21.168  0.00  0.00    +0.008 A 
ATOM      4  C   UNL     1      -2.040   2.664 -22.297  0.00  0.00    -0.034 A 
ATOM      5  C   UNL     1      -1.455   2.644 -23.317  0.00  0.00    +0.012 A 
ATOM      6  C   UNL     1      -1.826   2.976 -24.290  0.00  0.00    +0.034 C 
ATOM      7  C   UNL     1      -0.763   2.433 -23.569  0.00  0.00    +0.043 C 
ATOM      8  C   UNL     1      -0.860   2.191 -22.155  0.00  0.00    -0.026 C 
ATOM      9  C   UNL     1      -2.010   2.479 -21.416  0.00  0.00    -0.004 C 
ATOM     10  C   UNL     1      -2.798   2.877 -21.929  0.00  0.00    +0.005 C 
ATOM     11  C   UNL     1      -2.142   3.325 -25.459  0.00  0.00    +0.067 C 
ATOM     12  C   UNL     1      -3.382   3.814 -25.570  0.00  0.00    +0.133 C 
ATOM     13  N   UNL     1      -4.123   3.868 -24.427  0.00  0.00    +0.239 N 
ATOM     14  H   UNL     1      -4.849   4.004 -23.725  0.00  0.00    +0.204 HD
ATOM     15  C   UNL     1      -5.300   4.325 -24.494  0.00  0.00    +0.191 C 
ATOM     16  C   UNL     1      -3.531   3.433 -23.350  0.00  0.00    +0.096 C 
ATOM     17  C   UNL     1      -2.690   3.144 -23.494  0.00  0.00    -0.011 C 
ATOM     18  C   UNL     1      -3.471   3.229 -22.429  0.00  0.00    +0.094 C 
ATOM     19  C   UNL     1      -0.082   2.163 -23.504  0.00  0.00    +0.163 A 
ENDROOT
BRANCH   1  21
ATOM     20  C   UNL     1       2.857   0.646 -22.628  0.00  0.00    +0.277 C 
ATOM     21  O   UNL     1       1.860   1.343 -23.053  0.00  0.00    -0.491 OA
ENDBRANCH   1  21
BRANCH  19  22
ATOM     22  O   UNL     1       1.070   1.875 -24.241  0.00  0.00    -0.503 OA
ATOM     23  H   UNL     1       1.904   1.853 -23.816  0.00  0.00    +0.292 HD
ENDBRANCH  19  22
TORSDOF 2
ENDMDL
MODEL 3
REMARK VINA RESULT:   -10.154      2.525      5.193
REMARK INTER + INTRA:         -11.442
REMARK INTER:                 -11.338
REMARK INTRA:                  -0.104
REMARK UNBOUND:                -0.101
REMARK  Name = ZINC000038637538
REMARK  4 active torsions:
REMARK  status: ('A' for Active; 'I' for Inactive)
REMARK    1  A    between atoms: C_1  and  O_2
REMARK    2  A    between atoms: O_2  and  C_3
REMARK    3  A    between atoms: C_8  and  O_9
REMARK    4  A    between atoms: N_18  and  C_19
REMARK                            x       y       z     vdW  Elec       q    Type
REMARK                         _______ _______ _______ _____ _____    ______ ____
ROOT
ATOM      1  C   UNL     1      -4.901   3.676 -23.278  0.00  0.00    +0.162 A 
ATOM      2  C   UNL     1      -4.884   4.113 -24.519  0.00  0.00    +0.050 A 
ATOM      3  C   UNL     1      -3.754   4.097 -25.242  0.00  0.00    +0.008 A 
ATOM      4  C   UNL     1      -2.512   3.593 -24.672  0.00  0.00    -0.034 A 
ATOM      5  C   UNL     1      -2.613   3.222 -23.561  0.00  0.00    +0.012 A 
ATOM      6  C   UNL     1      -1.819   2.807 -22.935  0.00  0.00    +0.034 C 
ATOM      7  C   UNL     1      -3.163   3.166 -23.030  0.00  0.00    +0.043 C 
ATOM      8  C   UNL     1      -3.708   3.728 -24.236  0.00  0.00    -0.026 C 
ATOM      9  C   UNL     1      -2.938   3.949 -25.382  0.00  0.00    -0.004 C 
ATOM     10  C   UNL     1      -1.951   3.691 -25.328  0.00  0.00    +0.005 C 
ATOM     11  C   UNL     1      -0.989   2.317 -22.123  0.00  0.00    +0.067 C 
ATOM     12  C   UNL     1       0.249   2.191 -22.612  0.00  0.00    +0.133 C 
ATOM     13  N   UNL     1       0.444   2.601 -23.896  0.00  0.00    +0.239 N 
ATOM     14  H   UNL     1       0.824   2.835 -24.813  0.00  0.00    +0.204 HD
ATOM     15  C   UNL     1       1.603   2.497 -24.392  0.00  0.00    +0.191 C 
ATOM     16  C   UNL     1      -0.608   3.072 -24.505  0.00  0.00    +0.096 C 
ATOM     17  C   UNL     1      -1.350   3.070 -23.992  0.00  0.00    -0.011 C 
ATOM     18  C   UNL     1      -1.081   3.446 -25.232  0.00  0.00    +0.094 C 
ATOM     19  C   UNL     1      -3.845   3.237 -22.764  0.00  0.00    +0.163 A 
ENDROOT
BRANCH   1  21
ATOM     20  C   UNL     1      -6.510   2.563 -21.647  0.00  0.00    +0.277 C 
ATOM     21  O   UNL     1      -5.910   3.546 -22.226  0.00  0.00    -0.491 OA
ENDBRANCH   1  21
BRANCH  19  22
ATOM     22  O   UNL     1      -4.617   3.017 -21.620  0.00  0.00    -0.503 OA
ATOM     23  H   UNL     1      -4.216   2.685 -20.842  0.00  0.00    +0.292 HD
ENDBRANCH  19  22
TORSDOF 2
ENDMDL
MODEL 4
REMARK VINA RESULT:   -10.107      1.413      2.458
REMARK INTER + INTRA:         -11.390
REMARK INTER:                 -11.291
REMARK INTRA:                  -0.099
REMARK UNBOUND:                -0.101
REMARK  Name = ZINC000038637538
REMARK  4 active torsions:
REMARK  status: ('A' for Active; 'I' for Inactive)
REMARK    1  A    between atoms: C_1  and  O_2
REMARK    2  A    between atoms: O_2  and  C_3
REMARK    3  A    between atoms: C_8  and  O_9
REMARK    4  A    between atoms: N_18  and  C_19
REMARK                            x       y       z     vdW  Elec       q    Type
REMARK                         _______ _______ _______ _____ _____    ______ ____
ROOT
ATOM      1  C   UNL     1       0.836   1.953 -22.246  0.00  0.00    +0.162 A 
ATOM      2  C   UNL     1       0.989   2.472 -23.446  0.00  0.00    +0.050 A 
ATOM      3  C   UNL     1      -0.053   2.994 -24.110  0.00  0.00    +0.008 A 
ATOM      4  C   UNL     1      -1.384   3.002 -23.521  0.00  0.00    -0.034 A 
ATOM      5  C   UNL     1      -1.435   2.521 -22.449  0.00  0.00    +0.012 A 
ATOM      6  C   UNL     1      -2.322   2.418 -21.820  0.00  0.00    +0.034 C 
ATOM      7  C   UNL     1      -0.952   2.192 -21.953  0.00  0.00    +0.043 C 
ATOM      8  C   UNL     1      -0.237   2.586 -23.136  0.00  0.00    -0.026 C 
ATOM      9  C   UNL     1      -0.857   3.213 -24.221  0.00  0.00    -0.004 C 
ATOM     10  C   UNL     1      -1.861   3.385 -24.139  0.00  0.00    +0.005 C 
ATOM     11  C   UNL     1      -3.272   2.244 -21.009  0.00  0.00    +0.067 C 
ATOM     12  C   UNL     1      -4.454   2.691 -21.444  0.00  0.00    +0.133 C 
ATOM     13  N   UNL     1      -4.475   3.262 -22.681  0.00  0.00    +0.239 N 
ATOM     14  H   UNL     1      -4.733   3.718 -23.556  0.00  0.00    +0.204 HD
ATOM     15  C   UNL     1      -5.576   3.696 -23.125  0.00  0.00    +0.191 C 
ATOM     16  C   UNL     1      -3.329   3.307 -23.301  0.00  0.00    +0.096 C 
ATOM     17  C   UNL     1      -2.651   2.949 -22.829  0.00  0.00    -0.011 C 
ATOM     18  C   UNL     1      -2.752   3.516 -24.020  0.00  0.00    +0.094 C 
ATOM     19  C   UNL     1      -0.300   1.948 -21.716  0.00  0.00    +0.163 A 
ENDROOT
BRANCH   1  21
ATOM     20  C   UNL     1       2.981   1.148 -21.135  0.00  0.00    +0.277 C 
ATOM     21  O   UNL     1       1.710   1.318 -21.259  0.00  0.00    -0.491 OA
ENDBRANCH   1  21
BRANCH  19  22
ATOM     22  O   UNL     1       0.322   1.321 -20.634  0.00  0.00    -0.503 OA
ATOM     23  H   UNL     1       1.084   1.703 -20.247  0.00  0.00    +0.292 HD
ENDBRANCH  19  22
TORSDOF 2
ENDMDL
MODEL 5
REMARK VINA RESULT:    -9.678      2.076      4.347
REMARK INTER + INTRA:         -10.910
REMARK INTER:                 -10.805
REMARK INTRA:                  -0.105
REMARK UNBOUND:                -0.101
REMARK  Name = ZINC000038637538
REMARK  4 active torsions:
REMARK  status: ('A' for Active; 'I' for Inactive)
REMARK    1  A    between atoms: C_1  and  O_2
REMARK    2  A    between atoms: O_2  and  C_3
REMARK    3  A    between atoms: C_8  and  O_9
REMARK    4  A    between atoms: N_18  and  C_19
REMARK                            x       y       z     vdW  Elec       q    Type
REMARK                         _______ _______ _______ _____ _____    ______ ____
ROOT
ATOM      1  C   UNL     1      -2.958   3.521 -23.470  0.00  0.00    +0.162 A 
ATOM      2  C   UNL     1      -3.288   3.051 -22.286  0.00  0.00    +0.050 A 
ATOM      3  C   UNL     1      -2.397   2.387 -21.534  0.00  0.00    +0.008 A 
ATOM      4  C   UNL     1      -1.039   2.166 -22.009  0.00  0.00    -0.034 A 
ATOM      5  C   UNL     1      -0.827   2.616 -23.074  0.00  0.00    +0.012 A 
ATOM      6  C   UNL     1       0.115   2.573 -23.627  0.00  0.00    +0.034 C 
ATOM      7  C   UNL     1      -1.210   3.007 -23.611  0.00  0.00    +0.043 C 
ATOM      8  C   UNL     1      -2.072   2.746 -22.490  0.00  0.00    -0.026 C 
ATOM      9  C   UNL     1      -1.648   2.050 -21.356  0.00  0.00    -0.004 C 
ATOM     10  C   UNL     1      -0.679   1.725 -21.352  0.00  0.00    +0.005 C 
ATOM     11  C   UNL     1       1.143   2.587 -24.356  0.00  0.00    +0.067 C 
ATOM     12  C   UNL     1       2.204   1.972 -23.822  0.00  0.00    +0.133 C 
ATOM     13  N   UNL     1       2.034   1.424 -22.586  0.00  0.00    +0.239 N 
ATOM     14  H   UNL     1       2.146   0.949 -21.691  0.00  0.00    +0.204 HD
ATOM     15  C   UNL     1       3.016   0.834 -22.049  0.00  0.00    +0.191 C 
ATOM     16  C   UNL     1       0.848   1.564 -22.064  0.00  0.00    +0.096 C 
ATOM     17  C   UNL     1       0.274   2.014 -22.593  0.00  0.00    -0.011 C 
ATOM     18  C   UNL     1       0.188   1.457 -21.396  0.00  0.00    +0.094 C 
ATOM     19  C   UNL     1      -1.795   3.344 -23.902  0.00  0.00    +0.163 A 
ENDROOT
BRANCH   1  21
ATOM     20  C   UNL     1      -4.778   4.175 -25.127  0.00  0.00    +0.277 C 
ATOM     21  O   UNL     1      -3.640   4.266 -24.529  0.00  0.00    -0.491 OA
ENDBRANCH   1  21
BRANCH  19  22
ATOM     22  O   UNL     1      -2.222   4.041 -25.035  0.00  0.00    -0.503 OA
ATOM     23  H   UNL     1      -2.707   3.597 -25.702  0.00  0.00    +0.292 HD
ENDBRANCH  19  22
TORSDOF 2
ENDMDL
MODEL 6
REMARK VINA RESULT:    -9.563      2.378      5.053
REMARK INTER + INTRA:         -10.782
REMARK INTER:                 -10.681
REMARK INTRA:                  -0.101
REMARK UNBOUND:                -0.101
REMARK  Name = ZINC000038637538
REMARK  4 active torsions:
REMARK  status: ('A' for Active; 'I' for Inactive)
REMARK    1  A    between atoms: C_1  and  O_2
REMARK    2  A    between atoms: O_2  and  C_3
REMARK    3  A    between atoms: C_8  and  O_9
REMARK    4  A    between atoms: N_18  and  C_19
REMARK                            x       y       z     vdW  Elec       q    Type
REMARK                         _______ _______ _______ _____ _____    ______ ____
ROOT
ATOM      1  C   UNL     1      -3.161   3.097 -23.301  0.00  0.00    +0.162 A 
ATOM      2  C   UNL     1      -3.075   3.674 -24.480  0.00  0.00    +0.050 A 
ATOM      3  C   UNL     1      -1.896   3.782 -25.111  0.00  0.00    +0.008 A 
ATOM      4  C   UNL     1      -0.677   3.263 -24.507  0.00  0.00    -0.034 A 
ATOM      5  C   UNL     1      -0.841   2.764 -23.455  0.00  0.00    +0.012 A 
ATOM      6  C   UNL     1      -0.076   2.310 -22.820  0.00  0.00    +0.034 C 
ATOM      7  C   UNL     1      -1.425   2.628 -22.978  0.00  0.00    +0.043 C 
ATOM      8  C   UNL     1      -1.905   3.303 -24.152  0.00  0.00    -0.026 C 
ATOM      9  C   UNL     1      -1.066   3.682 -25.203  0.00  0.00    -0.004 C 
ATOM     10  C   UNL     1      -0.075   3.456 -25.103  0.00  0.00    +0.005 C 
ATOM     11  C   UNL     1       0.715   1.761 -22.006  0.00  0.00    +0.067 C 
ATOM     12  C   UNL     1       1.989   1.739 -22.409  0.00  0.00    +0.133 C 
ATOM     13  N   UNL     1       2.258   2.300 -23.621  0.00  0.00    +0.239 N 
ATOM     14  H   UNL     1       2.692   2.651 -24.474  0.00  0.00    +0.204 HD
ATOM     15  C   UNL     1       3.453   2.296 -24.035  0.00  0.00    +0.191 C 
ATOM     16  C   UNL     1       1.232   2.798 -24.252  0.00  0.00    +0.096 C 
ATOM     17  C   UNL     1       0.456   2.709 -23.802  0.00  0.00    -0.011 C 
ATOM     18  C   UNL     1       0.796   3.235 -24.968  0.00  0.00    +0.094 C 
ATOM     19  C   UNL     1      -2.127   2.642 -22.759  0.00  0.00    +0.163 A 
ENDROOT
BRANCH   1  21
ATOM     20  C   UNL     1      -5.385   3.329 -22.081  0.00  0.00    +0.277 C 
ATOM     21  O   UNL     1      -4.237   2.810 -22.351  0.00  0.00    -0.491 OA
ENDBRANCH   1  21
BRANCH  19  22
ATOM     22  O   UNL     1      -2.968   2.264 -21.710  0.00  0.00    -0.503 OA
ATOM     23  H   UNL     1      -2.625   2.175 -20.843  0.00  0.00    +0.292 HD
ENDBRANCH  19  22
TORSDOF 2
ENDMDL
MODEL 7
REMARK VINA RESULT:    -9.394      2.246      4.599
REMARK INTER + INTRA:         -10.593
REMARK INTER:                 -10.492
REMARK INTRA:                  -0.101
REMARK UNBOUND:                -0.101
REMARK  Name = ZINC000038637538
REMARK  4 active torsions:
REMARK  status: ('A' for Active; 'I' for Inactive)
REMARK    1  A    between atoms: C_1  and  O_2
REMARK    2  A    between atoms: O_2  and  C_3
REMARK    3  A    between atoms: C_8  and  O_9
REMARK    4  A    between atoms: N_18  and  C_19
REMARK                            x       y       z     vdW  Elec       q    Type
REMARK                         _______ _______ _______ _____ _____    ______ ____
ROOT
ATOM      1  C   UNL     1      -1.467   2.938 -24.167  0.00  0.00    +0.162 A 
ATOM      2  C   UNL     1      -2.049   2.592 -23.039  0.00  0.00    +0.050 A 
ATOM      3  C   UNL     1      -1.332   2.108 -22.013  0.00  0.00    +0.008 A 
ATOM      4  C   UNL     1       0.112   1.953 -22.120  0.00  0.00    -0.034 A 
ATOM      5  C   UNL     1       0.552   2.285 -23.158  0.00  0.00    +0.012 A 
ATOM      6  C   UNL     1       1.601   2.258 -23.462  0.00  0.00    +0.034 C 
ATOM      7  C   UNL     1       0.289   2.570 -23.819  0.00  0.00    +0.043 C 
ATOM      8  C   UNL     1      -0.804   2.374 -22.907  0.00  0.00    -0.026 C 
ATOM      9  C   UNL     1      -0.631   1.864 -21.617  0.00  0.00    -0.004 C 
ATOM     10  C   UNL     1       0.324   1.631 -21.340  0.00  0.00    +0.005 C 
ATOM     11  C   UNL     1       2.774   2.274 -23.924  0.00  0.00    +0.067 C 
ATOM     12  C   UNL     1       3.704   1.827 -23.074  0.00  0.00    +0.133 C 
ATOM     13  N   UNL     1       3.269   1.424 -21.847  0.00  0.00    +0.239 N 
ATOM     14  H   UNL     1       3.186   1.075 -20.893  0.00  0.00    +0.204 HD
ATOM     15  C   UNL     1       4.122   0.996 -21.017  0.00  0.00    +0.191 C 
ATOM     16  C   UNL     1       1.985   1.521 -21.644  0.00  0.00    +0.096 C 
ATOM     17  C   UNL     1       1.533   1.848 -22.351  0.00  0.00    -0.011 C 
ATOM     18  C   UNL     1       1.190   1.439 -21.141  0.00  0.00    +0.094 C 
ATOM     19  C   UNL     1      -0.225   2.815 -24.285  0.00  0.00    +0.163 A 
ENDROOT
BRANCH   1  21
ATOM     20  C   UNL     1      -3.005   3.451 -26.131  0.00  0.00    +0.277 C 
ATOM     21  O   UNL     1      -1.911   3.482 -25.451  0.00  0.00    -0.491 OA
ENDBRANCH   1  21
BRANCH  19  22
ATOM     22  O   UNL     1      -0.401   3.324 -25.573  0.00  0.00    -0.503 OA
ATOM     23  H   UNL     1      -0.901   4.105 -25.703  0.00  0.00    +0.292 HD
ENDBRANCH  19  22
TORSDOF 2
ENDMDL
MODEL 8
REMARK VINA RESULT:    -9.236      1.604      2.259
REMARK INTER + INTRA:         -10.417
REMARK INTER:                 -10.316
REMARK INTRA:                  -0.101
REMARK UNBOUND:                -0.101
REMARK  Name = ZINC000038637538
REMARK  4 active torsions:
REMARK  status: ('A' for Active; 'I' for Inactive)
REMARK    1  A    between atoms: C_1  and  O_2
REMARK    2  A    between atoms: O_2  and  C_3
REMARK    3  A    between atoms: C_8  and  O_9
REMARK    4  A    between atoms: N_18  and  C_19
REMARK                            x       y       z     vdW  Elec       q    Type
REMARK                         _______ _______ _______ _____ _____    ______ ____
ROOT
ATOM      1  C   UNL     1       2.990   2.646 -22.638  0.00  0.00    +0.162 A 
ATOM      2  C   UNL     1       2.768   1.629 -21.833  0.00  0.00    +0.050 A 
ATOM      3  C   UNL     1       1.519   1.276 -21.494  0.00  0.00    +0.008 A 
ATOM      4  C   UNL     1       0.372   2.011 -22.008  0.00  0.00    -0.034 A 
ATOM      5  C   UNL     1       0.656   2.903 -22.718  0.00  0.00    +0.012 A 
ATOM      6  C   UNL     1      -0.035   3.588 -23.216  0.00  0.00    +0.034 C 
ATOM      7  C   UNL     1       1.293   3.222 -23.000  0.00  0.00    +0.043 C 
ATOM      8  C   UNL     1       1.639   2.113 -22.152  0.00  0.00    -0.026 C 
ATOM      9  C   UNL     1       0.681   1.335 -21.497  0.00  0.00    -0.004 C 
ATOM     10  C   UNL     1      -0.297   1.590 -21.646  0.00  0.00    +0.005 C 
ATOM     11  C   UNL     1      -0.731   4.434 -23.841  0.00  0.00    +0.067 C 
ATOM     12  C   UNL     1      -2.049   4.296 -23.666  0.00  0.00    +0.133 C 
ATOM     13  N   UNL     1      -2.456   3.281 -22.853  0.00  0.00    +0.239 N 
ATOM     14  H   UNL     1      -2.987   2.608 -22.301  0.00  0.00    +0.204 HD
ATOM     15  C   UNL     1      -3.696   3.121 -22.665  0.00  0.00    +0.191 C 
ATOM     16  C   UNL     1      -1.504   2.555 -22.336  0.00  0.00    +0.096 C 
ATOM     17  C   UNL     1      -0.678   2.818 -22.583  0.00  0.00    -0.011 C 
ATOM     18  C   UNL     1      -1.151   1.856 -21.809  0.00  0.00    +0.094 C 
ATOM     19  C   UNL     1       2.019   3.295 -23.094  0.00  0.00    +0.163 A 
ENDROOT
BRANCH   1  21
ATOM     20  C   UNL     1       4.741   4.444 -23.069  0.00  0.00    +0.277 C 
ATOM     21  O   UNL     1       4.172   3.296 -23.205  0.00  0.00    -0.491 OA
ENDBRANCH   1  21
BRANCH  19  22
ATOM     22  O   UNL     1       2.979   4.071 -23.748  0.00  0.00    -0.503 OA
ATOM     23  H   UNL     1       2.806   4.406 -24.604  0.00  0.00    +0.292 HD
ENDBRANCH  19  22
TORSDOF 2
ENDMDL
MODEL 9
REMARK VINA RESULT:    -9.170      2.922      5.544
REMARK INTER + INTRA:         -10.344
REMARK INTER:                 -10.234
REMARK INTRA:                  -0.110
REMARK UNBOUND:                -0.101
REMARK  Name = ZINC000038637538
REMARK  4 active torsions:
REMARK  status: ('A' for Active; 'I' for Inactive)
REMARK    1  A    between atoms: C_1  and  O_2
REMARK    2  A    between atoms: O_2  and  C_3
REMARK    3  A    between atoms: C_8  and  O_9
REMARK    4  A    between atoms: N_18  and  C_19
REMARK                            x       y       z     vdW  Elec       q    Type
REMARK                         _______ _______ _______ _____ _____    ______ ____
ROOT
ATOM      1  C   UNL     1      -0.643   3.493 -23.819  0.00  0.00    +0.162 A 
ATOM      2  C   UNL     1      -0.182   4.722 -23.905  0.00  0.00    +0.050 A 
ATOM      3  C   UNL     1       1.107   4.995 -23.651  0.00  0.00    +0.008 A 
ATOM      4  C   UNL     1       2.032   3.936 -23.273  0.00  0.00    -0.034 A 
ATOM      5  C   UNL     1       1.541   2.870 -23.220  0.00  0.00    +0.012 A 
ATOM      6  C   UNL     1       2.039   1.933 -22.959  0.00  0.00    +0.034 C 
ATOM      7  C   UNL     1       0.850   2.558 -23.330  0.00  0.00    +0.043 C 
ATOM      8  C   UNL     1       0.788   3.975 -23.565  0.00  0.00    -0.026 C 
ATOM      9  C   UNL     1       1.900   4.812 -23.440  0.00  0.00    -0.004 C 
ATOM     10  C   UNL     1       2.779   4.369 -23.168  0.00  0.00    +0.005 C 
ATOM     11  C   UNL     1       2.503   0.795 -22.676  0.00  0.00    +0.067 C 
ATOM     12  C   UNL     1       3.806   0.793 -22.376  0.00  0.00    +0.133 C 
ATOM     13  N   UNL     1       4.445   1.995 -22.416  0.00  0.00    +0.239 N 
ATOM     14  H   UNL     1       5.121   2.758 -22.379  0.00  0.00    +0.204 HD
ATOM     15  C   UNL     1       5.678   2.031 -22.138  0.00  0.00    +0.191 C 
ATOM     16  C   UNL     1       3.706   3.017 -22.745  0.00  0.00    +0.096 C 
ATOM     17  C   UNL     1       2.846   2.800 -22.909  0.00  0.00    -0.011 C 
ATOM     18  C   UNL     1       3.537   3.929 -22.926  0.00  0.00    +0.094 C 
ATOM     19  C   UNL     1       0.133   2.563 -23.496  0.00  0.00    +0.163 A 
ENDROOT
BRANCH   1  21
ATOM     20  C   UNL     1      -2.752   2.699 -25.007  0.00  0.00    +0.277 C 
ATOM     21  O   UNL     1      -1.940   2.844 -24.016  0.00  0.00    -0.491 OA
ENDBRANCH   1  21
BRANCH  19  22
ATOM     22  O   UNL     1      -0.981   1.729 -23.622  0.00  0.00    -0.503 OA
ATOM     23  H   UNL     1      -1.525   1.559 -22.880  0.00  0.00    +0.292 HD
ENDBRANCH  19  22
TORSDOF 2
ENDMDL
