MODEL 1
REMARK VINA RESULT:   -10.348      0.000      0.000
REMARK INTER + INTRA:         -10.651
REMARK INTER:                 -10.651
REMARK INTRA:                   0.000
REMARK UNBOUND:                 0.000
REMARK  Name = ZINC000071325822
REMARK  4 active torsions:
REMARK  status: ('A' for Active; 'I' for Inactive)
REMARK    1  A    between atoms: C_1  and  C_2
REMARK    2  A    between atoms: C_6  and  C_7
REMARK    3  A    between atoms: C_6  and  O_8
REMARK    4  A    between atoms: C_14  and  C_15
REMARK                            x       y       z     vdW  Elec       q    Type
REMARK                         _______ _______ _______ _____ _____    ______ ____
ROOT
ATOM      1  C   UNL     1      -5.767   3.398 -22.142  0.00  0.00    +0.039 C 
ATOM      2  C   UNL     1      -4.525   3.133 -22.417  0.00  0.00    -0.073 C 
ATOM      3  C   UNL     1      -4.175   3.290 -23.659  0.00  0.00    -0.061 C 
ATOM      4  C   UNL     1      -4.994   3.686 -24.588  0.00  0.00    +0.034 C 
ATOM      5  C   UNL     1      -4.335   3.740 -25.708  0.00  0.00    +0.039 C 
ATOM      6  C   UNL     1      -3.109   3.377 -25.471  0.00  0.00    +0.073 C 
ATOM      7  C   UNL     1      -2.945   3.588 -26.743  0.00  0.00    +0.042 C 
ATOM      8  C   UNL     1      -3.010   3.099 -24.204  0.00  0.00    +0.087 C 
ATOM      9  C   UNL     1      -1.907   2.703 -23.642  0.00  0.00    +0.190 C 
ATOM     10  O   UNL     1      -0.790   2.545 -24.288  0.00  0.00    -0.460 OA
ATOM     11  C   UNL     1       0.110   2.144 -23.441  0.00  0.00    +0.311 C 
ATOM     12  C   UNL     1      -0.450   2.055 -22.271  0.00  0.00    +0.101 C 
ATOM     13  C   UNL     1       0.135   1.685 -21.170  0.00  0.00    +0.019 C 
ATOM     14  O   UNL     1       1.353   1.879 -23.715  0.00  0.00    -0.251 OA
ATOM     15  C   UNL     1      -1.697   2.401 -22.395  0.00  0.00    +0.044 C 
ATOM     16  C   UNL     1      -2.537   2.419 -21.403  0.00  0.00    +0.012 C 
ATOM     17  C   UNL     1      -3.795   2.745 -21.413  0.00  0.00    +0.031 C 
ENDROOT
BRANCH   6  18
ATOM     18  O   UNL     1      -1.849   3.058 -25.499  0.00  0.00    -0.388 OA
ATOM     19  H   UNL     1      -1.704   2.374 -26.171  0.00  0.00    +0.210 HD
ENDBRANCH   6  18
TORSDOF 1
ENDMDL
MODEL 2
REMARK VINA RESULT:    -9.862      1.658      3.181
REMARK INTER + INTRA:         -10.151
REMARK INTER:                 -10.151
REMARK INTRA:                   0.000
REMARK UNBOUND:                 0.000
REMARK  Name = ZINC000071325822
REMARK  4 active torsions:
REMARK  status: ('A' for Active; 'I' for Inactive)
REMARK    1  A    between atoms: C_1  and  C_2
REMARK    2  A    between atoms: C_6  and  C_7
REMARK    3  A    between atoms: C_6  and  O_8
REMARK    4  A    between atoms: C_14  and  C_15
REMARK                            x       y       z     vdW  Elec       q    Type
REMARK                         _______ _______ _______ _____ _____    ______ ____
ROOT
ATOM      1  C   UNL     1      -3.797   4.449 -25.871  0.00  0.00    +0.039 C 
ATOM      2  C   UNL     1      -3.056   3.896 -24.957  0.00  0.00    -0.073 C 
ATOM      3  C   UNL     1      -3.666   3.575 -23.855  0.00  0.00    -0.061 C 
ATOM      4  C   UNL     1      -4.933   3.779 -23.652  0.00  0.00    +0.034 C 
ATOM      5  C   UNL     1      -5.224   3.347 -22.460  0.00  0.00    +0.039 C 
ATOM      6  C   UNL     1      -4.137   2.875 -21.927  0.00  0.00    +0.073 C 
ATOM      7  C   UNL     1      -4.906   2.625 -20.910  0.00  0.00    +0.042 C 
ATOM      8  C   UNL     1      -3.173   3.016 -22.789  0.00  0.00    +0.087 C 
ATOM      9  C   UNL     1      -1.949   2.641 -22.562  0.00  0.00    +0.190 C 
ATOM     10  O   UNL     1      -1.563   2.087 -21.451  0.00  0.00    -0.460 OA
ATOM     11  C   UNL     1      -0.292   1.837 -21.547  0.00  0.00    +0.311 C 
ATOM     12  C   UNL     1       0.109   2.235 -22.718  0.00  0.00    +0.101 C 
ATOM     13  C   UNL     1       1.321   2.152 -23.180  0.00  0.00    +0.019 C 
ATOM     14  O   UNL     1       0.450   1.285 -20.633  0.00  0.00    -0.251 OA
ATOM     15  C   UNL     1      -0.915   2.732 -23.346  0.00  0.00    +0.044 C 
ATOM     16  C   UNL     1      -0.850   3.221 -24.548  0.00  0.00    +0.012 C 
ATOM     17  C   UNL     1      -1.802   3.739 -25.265  0.00  0.00    +0.031 C 
ENDROOT
BRANCH   6  18
ATOM     18  O   UNL     1      -3.210   2.351 -21.182  0.00  0.00    -0.388 OA
ATOM     19  H   UNL     1      -3.534   1.523 -20.797  0.00  0.00    +0.210 HD
ENDBRANCH   6  18
TORSDOF 1
ENDMDL
MODEL 3
REMARK VINA RESULT:    -9.485      1.469      4.217
REMARK INTER + INTRA:          -9.762
REMARK INTER:                  -9.762
REMARK INTRA:                   0.000
REMARK UNBOUND:                 0.000
REMARK  Name = ZINC000071325822
REMARK  4 active torsions:
REMARK  status: ('A' for Active; 'I' for Inactive)
REMARK    1  A    between atoms: C_1  and  C_2
REMARK    2  A    between atoms: C_6  and  C_7
REMARK    3  A    between atoms: C_6  and  O_8
REMARK    4  A    between atoms: C_14  and  C_15
REMARK                            x       y       z     vdW  Elec       q    Type
REMARK                         _______ _______ _______ _____ _____    ______ ____
ROOT
ATOM      1  C   UNL     1       0.114   1.497 -20.878  0.00  0.00    +0.039 C 
ATOM      2  C   UNL     1      -0.709   2.080 -21.699  0.00  0.00    -0.073 C 
ATOM      3  C   UNL     1      -0.178   2.560 -22.784  0.00  0.00    -0.061 C 
ATOM      4  C   UNL     1       1.090   2.478 -23.058  0.00  0.00    +0.034 C 
ATOM      5  C   UNL     1       1.292   3.051 -24.207  0.00  0.00    +0.039 C 
ATOM      6  C   UNL     1       0.148   3.489 -24.644  0.00  0.00    +0.073 C 
ATOM      7  C   UNL     1       0.848   3.901 -25.658  0.00  0.00    +0.042 C 
ATOM      8  C   UNL     1      -0.761   3.186 -23.764  0.00  0.00    +0.087 C 
ATOM      9  C   UNL     1      -2.018   3.485 -23.901  0.00  0.00    +0.190 C 
ATOM     10  O   UNL     1      -2.496   4.117 -24.931  0.00  0.00    -0.460 OA
ATOM     11  C   UNL     1      -3.777   4.256 -24.759  0.00  0.00    +0.311 C 
ATOM     12  C   UNL     1      -4.090   3.709 -23.622  0.00  0.00    +0.101 C 
ATOM     13  C   UNL     1      -5.282   3.650 -23.106  0.00  0.00    +0.019 C 
ATOM     14  O   UNL     1      -4.600   4.839 -25.579  0.00  0.00    -0.251 OA
ATOM     15  C   UNL     1      -3.004   3.232 -23.091  0.00  0.00    +0.044 C 
ATOM     16  C   UNL     1      -2.975   2.619 -21.946  0.00  0.00    +0.012 C 
ATOM     17  C   UNL     1      -1.954   2.107 -21.326  0.00  0.00    +0.031 C 
ENDROOT
BRANCH   6  18
ATOM     18  O   UNL     1      -0.849   4.013 -25.292  0.00  0.00    -0.388 OA
ATOM     19  H   UNL     1      -1.223   3.354 -25.897  0.00  0.00    +0.210 HD
ENDBRANCH   6  18
TORSDOF 1
ENDMDL
MODEL 4
REMARK VINA RESULT:    -9.016      1.930      5.123
REMARK INTER + INTRA:          -9.279
REMARK INTER:                  -9.279
REMARK INTRA:                   0.000
REMARK UNBOUND:                 0.000
REMARK  Name = ZINC000071325822
REMARK  4 active torsions:
REMARK  status: ('A' for Active; 'I' for Inactive)
REMARK    1  A    between atoms: C_1  and  C_2
REMARK    2  A    between atoms: C_6  and  C_7
REMARK    3  A    between atoms: C_6  and  O_8
REMARK    4  A    between atoms: C_14  and  C_15
REMARK                            x       y       z     vdW  Elec       q    Type
REMARK                         _______ _______ _______ _____ _____    ______ ____
ROOT
ATOM      1  C   UNL     1       1.137   3.403 -25.639  0.00  0.00    +0.039 C 
ATOM      2  C   UNL     1       0.035   3.317 -24.955  0.00  0.00    -0.073 C 
ATOM      3  C   UNL     1       0.144   2.785 -23.774  0.00  0.00    -0.061 C 
ATOM      4  C   UNL     1       1.269   2.356 -23.282  0.00  0.00    +0.034 C 
ATOM      5  C   UNL     1       1.035   1.886 -22.093  0.00  0.00    +0.039 C 
ATOM      6  C   UNL     1      -0.235   2.023 -21.850  0.00  0.00    +0.073 C 
ATOM      7  C   UNL     1       0.063   1.473 -20.710  0.00  0.00    +0.042 C 
ATOM      8  C   UNL     1      -0.786   2.579 -22.888  0.00  0.00    +0.087 C 
ATOM      9  C   UNL     1      -2.054   2.855 -22.965  0.00  0.00    +0.190 C 
ATOM     10  O   UNL     1      -2.901   2.603 -22.012  0.00  0.00    -0.460 OA
ATOM     11  C   UNL     1      -4.076   2.998 -22.403  0.00  0.00    +0.311 C 
ATOM     12  C   UNL     1      -3.955   3.493 -23.600  0.00  0.00    +0.101 C 
ATOM     13  C   UNL     1      -4.915   3.989 -24.321  0.00  0.00    +0.019 C 
ATOM     14  O   UNL     1      -5.178   2.912 -21.720  0.00  0.00    -0.251 OA
ATOM     15  C   UNL     1      -2.705   3.404 -23.947  0.00  0.00    +0.044 C 
ATOM     16  C   UNL     1      -2.250   3.814 -25.094  0.00  0.00    +0.012 C 
ATOM     17  C   UNL     1      -1.031   3.775 -25.542  0.00  0.00    +0.031 C 
ENDROOT
BRANCH   6  18
ATOM     18  O   UNL     1      -1.442   2.045 -21.368  0.00  0.00    -0.388 OA
ATOM     19  H   UNL     1      -1.415   1.857 -20.417  0.00  0.00    +0.210 HD
ENDBRANCH   6  18
TORSDOF 1
ENDMDL
MODEL 5
REMARK VINA RESULT:    -8.920      0.918      3.986
REMARK INTER + INTRA:          -9.181
REMARK INTER:                  -9.181
REMARK INTRA:                   0.000
REMARK UNBOUND:                 0.000
REMARK  Name = ZINC000071325822
REMARK  4 active torsions:
REMARK  status: ('A' for Active; 'I' for Inactive)
REMARK    1  A    between atoms: C_1  and  C_2
REMARK    2  A    between atoms: C_6  and  C_7
REMARK    3  A    between atoms: C_6  and  O_8
REMARK    4  A    between atoms: C_14  and  C_15
REMARK                            x       y       z     vdW  Elec       q    Type
REMARK                         _______ _______ _______ _____ _____    ______ ____
ROOT
ATOM      1  C   UNL     1      -3.336   3.008 -19.954  0.00  0.00    +0.039 C 
ATOM      2  C   UNL     1      -3.284   3.076 -21.251  0.00  0.00    -0.073 C 
ATOM      3  C   UNL     1      -2.132   2.796 -21.785  0.00  0.00    -0.061 C 
ATOM      4  C   UNL     1      -1.083   2.465 -21.092  0.00  0.00    +0.034 C 
ATOM      5  C   UNL     1      -0.105   2.251 -21.921  0.00  0.00    +0.039 C 
ATOM      6  C   UNL     1      -0.549   2.449 -23.126  0.00  0.00    +0.073 C 
ATOM      7  C   UNL     1       0.664   2.140 -23.478  0.00  0.00    +0.042 C 
ATOM      8  C   UNL     1      -1.802   2.785 -23.043  0.00  0.00    +0.087 C 
ATOM      9  C   UNL     1      -2.543   3.053 -24.077  0.00  0.00    +0.190 C 
ATOM     10  O   UNL     1      -2.106   3.012 -25.301  0.00  0.00    -0.460 OA
ATOM     11  C   UNL     1      -3.090   3.330 -26.089  0.00  0.00    +0.311 C 
ATOM     12  C   UNL     1      -4.134   3.568 -25.352  0.00  0.00    +0.101 C 
ATOM     13  C   UNL     1      -5.310   3.916 -25.784  0.00  0.00    +0.019 C 
ATOM     14  O   UNL     1      -3.038   3.398 -27.386  0.00  0.00    -0.251 OA
ATOM     15  C   UNL     1      -3.797   3.397 -24.109  0.00  0.00    +0.044 C 
ATOM     16  C   UNL     1      -4.619   3.558 -23.115  0.00  0.00    +0.012 C 
ATOM     17  C   UNL     1      -4.391   3.415 -21.843  0.00  0.00    +0.031 C 
ENDROOT
BRANCH   6  18
ATOM     18  O   UNL     1      -0.740   2.582 -24.406  0.00  0.00    -0.388 OA
ATOM     19  H   UNL     1      -0.370   1.816 -24.869  0.00  0.00    +0.210 HD
ENDBRANCH   6  18
TORSDOF 1
ENDMDL
MODEL 6
REMARK VINA RESULT:    -8.903      1.846      4.153
REMARK INTER + INTRA:          -9.163
REMARK INTER:                  -9.163
REMARK INTRA:                   0.000
REMARK UNBOUND:                 0.000
REMARK  Name = ZINC000071325822
REMARK  4 active torsions:
REMARK  status: ('A' for Active; 'I' for Inactive)
REMARK    1  A    between atoms: C_1  and  C_2
REMARK    2  A    between atoms: C_6  and  C_7
REMARK    3  A    between atoms: C_6  and  O_8
REMARK    4  A    between atoms: C_14  and  C_15
REMARK                            x       y       z     vdW  Elec       q    Type
REMARK                         _______ _______ _______ _____ _____    ______ ____
ROOT
ATOM      1  C   UNL     1      -2.928   3.677 -27.239  0.00  0.00    +0.039 C 
ATOM      2  C   UNL     1      -3.066   3.569 -25.951  0.00  0.00    -0.073 C 
ATOM      3  C   UNL     1      -1.963   3.554 -25.265  0.00  0.00    -0.061 C 
ATOM      4  C   UNL     1      -0.782   3.639 -25.803  0.00  0.00    +0.034 C 
ATOM      5  C   UNL     1       0.100   3.595 -24.849  0.00  0.00    +0.039 C 
ATOM      6  C   UNL     1      -0.535   3.482 -23.720  0.00  0.00    +0.073 C 
ATOM      7  C   UNL     1       0.658   3.483 -23.205  0.00  0.00    +0.042 C 
ATOM      8  C   UNL     1      -1.810   3.456 -23.976  0.00  0.00    +0.087 C 
ATOM      9  C   UNL     1      -2.724   3.350 -23.058  0.00  0.00    +0.190 C 
ATOM     10  O   UNL     1      -2.456   3.258 -21.789  0.00  0.00    -0.460 OA
ATOM     11  C   UNL     1      -3.583   3.166 -21.147  0.00  0.00    +0.311 C 
ATOM     12  C   UNL     1      -4.546   3.201 -22.019  0.00  0.00    +0.101 C 
ATOM     13  C   UNL     1      -5.818   3.135 -21.756  0.00  0.00    +0.019 C 
ATOM     14  O   UNL     1      -3.722   3.058 -19.859  0.00  0.00    -0.251 OA
ATOM     15  C   UNL     1      -4.016   3.315 -23.201  0.00  0.00    +0.044 C 
ATOM     16  C   UNL     1      -4.713   3.378 -24.296  0.00  0.00    +0.012 C 
ATOM     17  C   UNL     1      -4.290   3.491 -25.520  0.00  0.00    +0.031 C 
ENDROOT
BRANCH   6  18
ATOM     18  O   UNL     1      -0.921   3.369 -22.484  0.00  0.00    -0.388 OA
ATOM     19  H   UNL     1      -0.850   4.229 -22.043  0.00  0.00    +0.210 HD
ENDBRANCH   6  18
TORSDOF 1
ENDMDL
MODEL 7
REMARK VINA RESULT:    -8.852      1.951      3.830
REMARK INTER + INTRA:          -9.111
REMARK INTER:                  -9.111
REMARK INTRA:                   0.000
REMARK UNBOUND:                 0.000
REMARK  Name = ZINC000071325822
REMARK  4 active torsions:
REMARK  status: ('A' for Active; 'I' for Inactive)
REMARK    1  A    between atoms: C_1  and  C_2
REMARK    2  A    between atoms: C_6  and  C_7
REMARK    3  A    between atoms: C_6  and  O_8
REMARK    4  A    between atoms: C_14  and  C_15
REMARK                            x       y       z     vdW  Elec       q    Type
REMARK                         _______ _______ _______ _____ _____    ______ ____
ROOT
ATOM      1  C   UNL     1       0.894   2.880 -23.630  0.00  0.00    +0.039 C 
ATOM      2  C   UNL     1      -0.361   2.900 -23.292  0.00  0.00    -0.073 C 
ATOM      3  C   UNL     1      -1.200   3.150 -24.252  0.00  0.00    -0.061 C 
ATOM      4  C   UNL     1      -0.837   3.371 -25.481  0.00  0.00    +0.034 C 
ATOM      5  C   UNL     1      -1.910   3.586 -26.184  0.00  0.00    +0.039 C 
ATOM      6  C   UNL     1      -2.935   3.499 -25.390  0.00  0.00    +0.073 C 
ATOM      7  C   UNL     1      -3.618   3.761 -26.465  0.00  0.00    +0.042 C 
ATOM      8  C   UNL     1      -2.497   3.229 -24.195  0.00  0.00    +0.087 C 
ATOM      9  C   UNL     1      -3.274   3.077 -23.164  0.00  0.00    +0.190 C 
ATOM     10  O   UNL     1      -4.569   3.179 -23.222  0.00  0.00    -0.460 OA
ATOM     11  C   UNL     1      -5.041   2.974 -22.029  0.00  0.00    +0.311 C 
ATOM     12  C   UNL     1      -4.039   2.745 -21.234  0.00  0.00    +0.101 C 
ATOM     13  C   UNL     1      -4.115   2.495 -19.960  0.00  0.00    +0.019 C 
ATOM     14  O   UNL     1      -6.296   2.993 -21.690  0.00  0.00    -0.251 OA
ATOM     15  C   UNL     1      -2.946   2.809 -21.935  0.00  0.00    +0.044 C 
ATOM     16  C   UNL     1      -1.761   2.626 -21.434  0.00  0.00    +0.012 C 
ATOM     17  C   UNL     1      -0.611   2.666 -22.037  0.00  0.00    +0.031 C 
ENDROOT
BRANCH   6  18
ATOM     18  O   UNL     1      -4.103   3.466 -24.820  0.00  0.00    -0.388 OA
ATOM     19  H   UNL     1      -4.188   4.217 -24.213  0.00  0.00    +0.210 HD
ENDBRANCH   6  18
TORSDOF 1
ENDMDL
MODEL 8
REMARK VINA RESULT:    -8.189      2.966      6.197
REMARK INTER + INTRA:          -8.429
REMARK INTER:                  -8.429
REMARK INTRA:                   0.000
REMARK UNBOUND:                 0.000
REMARK  Name = ZINC000071325822
REMARK  4 active torsions:
REMARK  status: ('A' for Active; 'I' for Inactive)
REMARK    1  A    between atoms: C_1  and  C_2
REMARK    2  A    between atoms: C_6  and  C_7
REMARK    3  A    between atoms: C_6  and  O_8
REMARK    4  A    between atoms: C_14  and  C_15
REMARK                            x       y       z     vdW  Elec       q    Type
REMARK                         _______ _______ _______ _____ _____    ______ ____
ROOT
ATOM      1  C   UNL     1       4.442   5.186 -22.946  0.00  0.00    +0.039 C 
ATOM      2  C   UNL     1       3.269   4.637 -23.062  0.00  0.00    -0.073 C 
ATOM      3  C   UNL     1       3.228   3.350 -22.887  0.00  0.00    -0.061 C 
ATOM      4  C   UNL     1       4.276   2.631 -22.614  0.00  0.00    +0.034 C 
ATOM      5  C   UNL     1       3.895   1.392 -22.502  0.00  0.00    +0.039 C 
ATOM      6  C   UNL     1       2.612   1.346 -22.707  0.00  0.00    +0.073 C 
ATOM      7  C   UNL     1       2.763   0.071 -22.503  0.00  0.00    +0.042 C 
ATOM      8  C   UNL     1       2.199   2.556 -22.945  0.00  0.00    +0.087 C 
ATOM      9  C   UNL     1       0.958   2.854 -23.191  0.00  0.00    +0.190 C 
ATOM     10  O   UNL     1       0.003   1.973 -23.224  0.00  0.00    -0.460 OA
ATOM     11  C   UNL     1      -1.107   2.593 -23.494  0.00  0.00    +0.311 C 
ATOM     12  C   UNL     1      -0.837   3.858 -23.627  0.00  0.00    +0.101 C 
ATOM     13  C   UNL     1      -1.694   4.797 -23.900  0.00  0.00    +0.019 C 
ATOM     14  O   UNL     1      -2.280   2.046 -23.610  0.00  0.00    -0.251 OA
ATOM     15  C   UNL     1       0.439   4.020 -23.440  0.00  0.00    +0.044 C 
ATOM     16  C   UNL     1       1.032   5.174 -23.505  0.00  0.00    +0.012 C 
ATOM     17  C   UNL     1       2.291   5.449 -23.337  0.00  0.00    +0.031 C 
ENDROOT
BRANCH   6  18
ATOM     18  O   UNL     1       1.361   1.033 -22.869  0.00  0.00    -0.388 OA
ATOM     19  H   UNL     1       1.037   0.576 -22.078  0.00  0.00    +0.210 HD
ENDBRANCH   6  18
TORSDOF 1
ENDMDL
MODEL 9
REMARK VINA RESULT:    -7.998      2.184      3.448
REMARK INTER + INTRA:          -8.231
REMARK INTER:                  -8.231
REMARK INTRA:                   0.000
REMARK UNBOUND:                 0.000
REMARK  Name = ZINC000071325822
REMARK  4 active torsions:
REMARK  status: ('A' for Active; 'I' for Inactive)
REMARK    1  A    between atoms: C_1  and  C_2
REMARK    2  A    between atoms: C_6  and  C_7
REMARK    3  A    between atoms: C_6  and  O_8
REMARK    4  A    between atoms: C_14  and  C_15
REMARK                            x       y       z     vdW  Elec       q    Type
REMARK                         _______ _______ _______ _____ _____    ______ ____
ROOT
ATOM      1  C   UNL     1      -2.627   2.608 -22.006  0.00  0.00    +0.039 C 
ATOM      2  C   UNL     1      -1.347   2.432 -22.143  0.00  0.00    -0.073 C 
ATOM      3  C   UNL     1      -0.823   2.921 -23.227  0.00  0.00    -0.061 C 
ATOM      4  C   UNL     1      -1.509   3.551 -24.134  0.00  0.00    +0.034 C 
ATOM      5  C   UNL     1      -0.693   3.908 -25.081  0.00  0.00    +0.039 C 
ATOM      6  C   UNL     1       0.498   3.499 -24.760  0.00  0.00    +0.073 C 
ATOM      7  C   UNL     1       0.842   4.047 -25.887  0.00  0.00    +0.042 C 
ATOM      8  C   UNL     1       0.419   2.889 -23.614  0.00  0.00    +0.087 C 
ATOM      9  C   UNL     1       1.442   2.360 -23.012  0.00  0.00    +0.190 C 
ATOM     10  O   UNL     1       2.649   2.386 -23.493  0.00  0.00    -0.460 OA
ATOM     11  C   UNL     1       3.430   1.774 -22.653  0.00  0.00    +0.311 C 
ATOM     12  C   UNL     1       2.705   1.370 -21.652  0.00  0.00    +0.101 C 
ATOM     13  C   UNL     1       3.134   0.718 -20.613  0.00  0.00    +0.019 C 
ATOM     14  O   UNL     1       4.711   1.598 -22.789  0.00  0.00    -0.251 OA
ATOM     15  C   UNL     1       1.476   1.731 -21.874  0.00  0.00    +0.044 C 
ATOM     16  C   UNL     1       0.497   1.478 -21.058  0.00  0.00    +0.012 C 
ATOM     17  C   UNL     1      -0.759   1.789 -21.177  0.00  0.00    +0.031 C 
ENDROOT
BRANCH   6  18
ATOM     18  O   UNL     1       1.762   3.205 -24.674  0.00  0.00    -0.388 OA
ATOM     19  H   UNL     1       2.280   3.858 -25.168  0.00  0.00    +0.210 HD
ENDBRANCH   6  18
TORSDOF 1
ENDMDL
