MODEL 1
REMARK VINA RESULT:    -6.663      0.000      0.000
REMARK INTER + INTRA:          -8.019
REMARK INTER:                  -8.393
REMARK INTRA:                   0.374
REMARK UNBOUND:                 0.397
REMARK  Name = ZINC000004104919
REMARK  7 active torsions:
REMARK  status: ('A' for Active; 'I' for Inactive)
REMARK    1  A    between atoms: C_1  and  O_2
REMARK    2  A    between atoms: O_2  and  C_3
REMARK    3  A    between atoms: C_4  and  C_5
REMARK    4  A    between atoms: C_5  and  S_6
REMARK    5  A    between atoms: C_11  and  O_12
REMARK    6  A    between atoms: C_13  and  O_14
REMARK    7  A    between atoms: C_15  and  O_16
REMARK                            x       y       z     vdW  Elec       q    Type
REMARK                         _______ _______ _______ _____ _____    ______ ____
ROOT
ATOM      1  C   UNL     1      -3.245   3.590 -23.151  0.00  0.00    +0.179 C 
ATOM      2  C   UNL     1      -2.047   3.369 -23.605  0.00  0.00    +0.173 C 
ATOM      3  O   UNL     1      -1.834   3.337 -24.887  0.00  0.00    -0.341 OA
ATOM      4  C   UNL     1      -2.819   3.526 -25.715  0.00  0.00    +0.279 C 
ATOM      5  C   UNL     1      -4.016   3.746 -25.261  0.00  0.00    +0.201 C 
ATOM      6  C   UNL     1      -4.230   3.779 -23.979  0.00  0.00    +0.179 C 
ENDROOT
BRANCH   5   7
ATOM      7  O   UNL     1      -5.001   3.935 -26.088  0.00  0.00    -0.384 OA
ATOM      8  H   UNL     1      -4.849   3.418 -26.895  0.00  0.00    +0.210 HD
ENDBRANCH   5   7
BRANCH   4   9
ATOM      9  O   UNL     1      -2.605   3.493 -26.997  0.00  0.00    -0.365 OA
ATOM     10  H   UNL     1      -3.442   3.630 -27.468  0.00  0.00    +0.213 HD
ENDBRANCH   4   9
BRANCH   1  12
ATOM     11  C   UNL     1      -3.866   2.554 -21.251  0.00  0.00    +0.194 C 
ATOM     12  O   UNL     1      -3.459   3.623 -21.869  0.00  0.00    -0.375 OA
ENDBRANCH   1  12
BRANCH   6  13
ATOM     13  O   UNL     1      -5.428   3.999 -23.525  0.00  0.00    -0.386 OA
ATOM     14  H   UNL     1      -5.471   4.893 -23.149  0.00  0.00    +0.210 HD
ENDBRANCH   6  13
BRANCH   2  15
ATOM     15  C   UNL     1      -1.063   3.181 -22.778  0.00  0.00    +0.187 C 
BRANCH  15  16
ATOM     16  S   UNL     1      -0.010   2.520 -23.159  0.00  0.00    -0.078 S 
ATOM     17  O   UNL     1       1.042   1.860 -23.541  0.00  0.00    -0.724 OA
ATOM     18  O   UNL     1      -0.648   1.402 -22.980  0.00  0.00    -0.185 OA
ATOM     19  O   UNL     1       0.627   3.639 -23.339  0.00  0.00    -0.185 OA
ENDBRANCH  15  16
ENDBRANCH   2  15
TORSDOF 6
ENDMDL
MODEL 2
REMARK VINA RESULT:    -6.577      4.707      5.592
REMARK INTER + INTRA:          -7.910
REMARK INTER:                  -8.331
REMARK INTRA:                   0.421
REMARK UNBOUND:                 0.397
REMARK  Name = ZINC000004104919
REMARK  7 active torsions:
REMARK  status: ('A' for Active; 'I' for Inactive)
REMARK    1  A    between atoms: C_1  and  O_2
REMARK    2  A    between atoms: O_2  and  C_3
REMARK    3  A    between atoms: C_4  and  C_5
REMARK    4  A    between atoms: C_5  and  S_6
REMARK    5  A    between atoms: C_11  and  O_12
REMARK    6  A    between atoms: C_13  and  O_14
REMARK    7  A    between atoms: C_15  and  O_16
REMARK                            x       y       z     vdW  Elec       q    Type
REMARK                         _______ _______ _______ _____ _____    ______ ____
ROOT
ATOM      1  C   UNL     1       1.990   3.173 -23.775  0.00  0.00    +0.179 C 
ATOM      2  C   UNL     1       2.627   2.229 -23.148  0.00  0.00    +0.173 C 
ATOM      3  O   UNL     1       2.968   1.145 -23.778  0.00  0.00    -0.341 OA
ATOM      4  C   UNL     1       2.671   1.003 -25.037  0.00  0.00    +0.279 C 
ATOM      5  C   UNL     1       2.034   1.947 -25.664  0.00  0.00    +0.201 C 
ATOM      6  C   UNL     1       1.694   3.032 -25.033  0.00  0.00    +0.179 C 
ENDROOT
BRANCH   5   7
ATOM      7  O   UNL     1       1.738   1.807 -26.921  0.00  0.00    -0.384 OA
ATOM      8  H   UNL     1       2.076   0.955 -27.240  0.00  0.00    +0.210 HD
ENDBRANCH   5   7
BRANCH   4   9
ATOM      9  O   UNL     1       3.012  -0.081 -25.667  0.00  0.00    -0.365 OA
ATOM     10  H   UNL     1       3.947  -0.028 -25.920  0.00  0.00    +0.213 HD
ENDBRANCH   4   9
BRANCH   1  12
ATOM     11  C   UNL     1       2.376   5.329 -23.256  0.00  0.00    +0.194 C 
ATOM     12  O   UNL     1       1.650   4.257 -23.144  0.00  0.00    -0.375 OA
ENDBRANCH   1  12
BRANCH   6  13
ATOM     13  O   UNL     1       1.057   3.976 -25.660  0.00  0.00    -0.386 OA
ATOM     14  H   UNL     1       0.807   4.671 -25.031  0.00  0.00    +0.210 HD
ENDBRANCH   6  13
BRANCH   2  15
ATOM     15  C   UNL     1       2.924   2.370 -21.890  0.00  0.00    +0.187 C 
BRANCH  15  16
ATOM     16  S   UNL     1       3.154   1.322 -21.156  0.00  0.00    -0.078 S 
ATOM     17  O   UNL     1       3.384   0.275 -20.421  0.00  0.00    -0.724 OA
ATOM     18  O   UNL     1       1.875   1.153 -20.996  0.00  0.00    -0.185 OA
ATOM     19  O   UNL     1       4.433   1.491 -21.315  0.00  0.00    -0.185 OA
ENDBRANCH  15  16
ENDBRANCH   2  15
TORSDOF 6
ENDMDL
MODEL 3
REMARK VINA RESULT:    -6.470      1.639      3.508
REMARK INTER + INTRA:          -7.775
REMARK INTER:                  -8.232
REMARK INTRA:                   0.457
REMARK UNBOUND:                 0.397
REMARK  Name = ZINC000004104919
REMARK  7 active torsions:
REMARK  status: ('A' for Active; 'I' for Inactive)
REMARK    1  A    between atoms: C_1  and  O_2
REMARK    2  A    between atoms: O_2  and  C_3
REMARK    3  A    between atoms: C_4  and  C_5
REMARK    4  A    between atoms: C_5  and  S_6
REMARK    5  A    between atoms: C_11  and  O_12
REMARK    6  A    between atoms: C_13  and  O_14
REMARK    7  A    between atoms: C_15  and  O_16
REMARK                            x       y       z     vdW  Elec       q    Type
REMARK                         _______ _______ _______ _____ _____    ______ ____
ROOT
ATOM      1  C   UNL     1      -1.609   3.555 -23.935  0.00  0.00    +0.179 C 
ATOM      2  C   UNL     1      -2.757   3.598 -23.326  0.00  0.00    +0.173 C 
ATOM      3  O   UNL     1      -3.859   3.595 -24.016  0.00  0.00    -0.341 OA
ATOM      4  C   UNL     1      -3.813   3.549 -25.315  0.00  0.00    +0.279 C 
ATOM      5  C   UNL     1      -2.665   3.506 -25.923  0.00  0.00    +0.201 C 
ATOM      6  C   UNL     1      -1.564   3.509 -25.233  0.00  0.00    +0.179 C 
ENDROOT
BRANCH   5   7
ATOM      7  O   UNL     1      -2.619   3.460 -27.221  0.00  0.00    -0.384 OA
ATOM      8  H   UNL     1      -2.637   4.362 -27.578  0.00  0.00    +0.210 HD
ENDBRANCH   5   7
BRANCH   4   9
ATOM      9  O   UNL     1      -4.915   3.547 -26.004  0.00  0.00    -0.365 OA
ATOM     10  H   UNL     1      -5.648   3.849 -25.444  0.00  0.00    +0.213 HD
ENDBRANCH   4   9
BRANCH   1  12
ATOM     11  C   UNL     1       0.132   2.445 -23.038  0.00  0.00    +0.194 C 
ATOM     12  O   UNL     1      -0.507   3.558 -23.245  0.00  0.00    -0.375 OA
ENDBRANCH   1  12
BRANCH   6  13
ATOM     13  O   UNL     1      -0.416   3.466 -25.842  0.00  0.00    -0.386 OA
ATOM     14  H   UNL     1       0.089   4.269 -25.638  0.00  0.00    +0.210 HD
ENDBRANCH   6  13
BRANCH   2  15
ATOM     15  C   UNL     1      -2.804   3.644 -22.028  0.00  0.00    +0.187 C 
BRANCH  15  16
ATOM     16  S   UNL     1      -3.661   2.911 -21.382  0.00  0.00    -0.078 S 
ATOM     17  O   UNL     1      -4.519   2.179 -20.736  0.00  0.00    -0.724 OA
ATOM     18  O   UNL     1      -4.472   3.925 -21.309  0.00  0.00    -0.185 OA
ATOM     19  O   UNL     1      -2.850   1.898 -21.454  0.00  0.00    -0.185 OA
ENDBRANCH  15  16
ENDBRANCH   2  15
TORSDOF 6
ENDMDL
MODEL 4
REMARK VINA RESULT:    -6.455      1.151      3.107
REMARK INTER + INTRA:          -7.756
REMARK INTER:                  -8.180
REMARK INTRA:                   0.424
REMARK UNBOUND:                 0.397
REMARK  Name = ZINC000004104919
REMARK  7 active torsions:
REMARK  status: ('A' for Active; 'I' for Inactive)
REMARK    1  A    between atoms: C_1  and  O_2
REMARK    2  A    between atoms: O_2  and  C_3
REMARK    3  A    between atoms: C_4  and  C_5
REMARK    4  A    between atoms: C_5  and  S_6
REMARK    5  A    between atoms: C_11  and  O_12
REMARK    6  A    between atoms: C_13  and  O_14
REMARK    7  A    between atoms: C_15  and  O_16
REMARK                            x       y       z     vdW  Elec       q    Type
REMARK                         _______ _______ _______ _____ _____    ______ ____
ROOT
ATOM      1  C   UNL     1      -3.337   3.682 -24.202  0.00  0.00    +0.179 C 
ATOM      2  C   UNL     1      -2.455   3.012 -23.521  0.00  0.00    +0.173 C 
ATOM      3  O   UNL     1      -2.764   2.531 -22.354  0.00  0.00    -0.341 OA
ATOM      4  C   UNL     1      -3.955   2.719 -21.867  0.00  0.00    +0.279 C 
ATOM      5  C   UNL     1      -4.837   3.389 -22.548  0.00  0.00    +0.201 C 
ATOM      6  C   UNL     1      -4.528   3.871 -23.715  0.00  0.00    +0.179 C 
ENDROOT
BRANCH   5   7
ATOM      7  O   UNL     1      -6.027   3.578 -22.062  0.00  0.00    -0.384 OA
ATOM      8  H   UNL     1      -6.618   3.891 -22.764  0.00  0.00    +0.210 HD
ENDBRANCH   5   7
BRANCH   4   9
ATOM      9  O   UNL     1      -4.264   2.238 -20.700  0.00  0.00    -0.365 OA
ATOM     10  H   UNL     1      -4.717   2.919 -20.178  0.00  0.00    +0.213 HD
ENDBRANCH   4   9
BRANCH   1  12
ATOM     11  C   UNL     1      -3.296   3.484 -26.444  0.00  0.00    +0.194 C 
ATOM     12  O   UNL     1      -3.028   4.164 -25.369  0.00  0.00    -0.375 OA
ENDBRANCH   1  12
BRANCH   6  13
ATOM     13  O   UNL     1      -5.410   4.541 -24.396  0.00  0.00    -0.386 OA
ATOM     14  H   UNL     1      -5.887   5.143 -23.803  0.00  0.00    +0.210 HD
ENDBRANCH   6  13
BRANCH   2  15
ATOM     15  C   UNL     1      -1.265   2.823 -24.007  0.00  0.00    +0.187 C 
BRANCH  15  16
ATOM     16  S   UNL     1      -0.239   2.767 -23.211  0.00  0.00    -0.078 S 
ATOM     17  O   UNL     1       0.787   2.711 -22.414  0.00  0.00    -0.724 OA
ATOM     18  O   UNL     1      -0.200   4.066 -23.169  0.00  0.00    -0.185 OA
ATOM     19  O   UNL     1      -0.278   1.468 -23.253  0.00  0.00    -0.185 OA
ENDBRANCH  15  16
ENDBRANCH   2  15
TORSDOF 6
ENDMDL
MODEL 5
REMARK VINA RESULT:    -6.421      3.398      5.375
REMARK INTER + INTRA:          -7.713
REMARK INTER:                  -8.081
REMARK INTRA:                   0.368
REMARK UNBOUND:                 0.397
REMARK  Name = ZINC000004104919
REMARK  7 active torsions:
REMARK  status: ('A' for Active; 'I' for Inactive)
REMARK    1  A    between atoms: C_1  and  O_2
REMARK    2  A    between atoms: O_2  and  C_3
REMARK    3  A    between atoms: C_4  and  C_5
REMARK    4  A    between atoms: C_5  and  S_6
REMARK    5  A    between atoms: C_11  and  O_12
REMARK    6  A    between atoms: C_13  and  O_14
REMARK    7  A    between atoms: C_15  and  O_16
REMARK                            x       y       z     vdW  Elec       q    Type
REMARK                         _______ _______ _______ _____ _____    ______ ____
ROOT
ATOM      1  C   UNL     1       1.037   3.591 -23.188  0.00  0.00    +0.179 C 
ATOM      2  C   UNL     1       2.044   2.800 -22.965  0.00  0.00    +0.173 C 
ATOM      3  O   UNL     1       3.242   3.291 -22.843  0.00  0.00    -0.341 OA
ATOM      4  C   UNL     1       3.433   4.573 -22.945  0.00  0.00    +0.279 C 
ATOM      5  C   UNL     1       2.426   5.364 -23.168  0.00  0.00    +0.201 C 
ATOM      6  C   UNL     1       1.228   4.874 -23.290  0.00  0.00    +0.179 C 
ENDROOT
BRANCH   5   7
ATOM      7  O   UNL     1       2.616   6.646 -23.269  0.00  0.00    -0.384 OA
ATOM      8  H   UNL     1       3.133   6.834 -24.068  0.00  0.00    +0.210 HD
ENDBRANCH   5   7
BRANCH   4   9
ATOM      9  O   UNL     1       4.630   5.064 -22.823  0.00  0.00    -0.365 OA
ATOM     10  H   UNL     1       4.711   5.508 -21.964  0.00  0.00    +0.213 HD
ENDBRANCH   4   9
BRANCH   1  12
ATOM     11  C   UNL     1      -0.952   3.055 -22.281  0.00  0.00    +0.194 C 
ATOM     12  O   UNL     1      -0.160   3.101 -23.310  0.00  0.00    -0.375 OA
ENDBRANCH   1  12
BRANCH   6  13
ATOM     13  O   UNL     1       0.221   5.665 -23.513  0.00  0.00    -0.386 OA
ATOM     14  H   UNL     1      -0.050   6.086 -22.682  0.00  0.00    +0.210 HD
ENDBRANCH   6  13
BRANCH   2  15
ATOM     15  C   UNL     1       1.854   1.519 -22.864  0.00  0.00    +0.187 C 
BRANCH  15  16
ATOM     16  S   UNL     1       2.602   0.811 -22.070  0.00  0.00    -0.078 S 
ATOM     17  O   UNL     1       3.350   0.104 -21.276  0.00  0.00    -0.724 OA
ATOM     18  O   UNL     1       3.339   0.456 -23.080  0.00  0.00    -0.185 OA
ATOM     19  O   UNL     1       1.865   1.166 -21.059  0.00  0.00    -0.185 OA
ENDBRANCH  15  16
ENDBRANCH   2  15
TORSDOF 6
ENDMDL
MODEL 6
REMARK VINA RESULT:    -6.357      4.541      6.840
REMARK INTER + INTRA:          -7.632
REMARK INTER:                  -8.082
REMARK INTRA:                   0.450
REMARK UNBOUND:                 0.397
REMARK  Name = ZINC000004104919
REMARK  7 active torsions:
REMARK  status: ('A' for Active; 'I' for Inactive)
REMARK    1  A    between atoms: C_1  and  O_2
REMARK    2  A    between atoms: O_2  and  C_3
REMARK    3  A    between atoms: C_4  and  C_5
REMARK    4  A    between atoms: C_5  and  S_6
REMARK    5  A    between atoms: C_11  and  O_12
REMARK    6  A    between atoms: C_13  and  O_14
REMARK    7  A    between atoms: C_15  and  O_16
REMARK                            x       y       z     vdW  Elec       q    Type
REMARK                         _______ _______ _______ _____ _____    ______ ____
ROOT
ATOM      1  C   UNL     1       3.379   3.018 -22.543  0.00  0.00    +0.179 C 
ATOM      2  C   UNL     1       2.642   2.661 -23.553  0.00  0.00    +0.173 C 
ATOM      3  O   UNL     1       2.264   1.424 -23.677  0.00  0.00    -0.341 OA
ATOM      4  C   UNL     1       2.624   0.542 -22.791  0.00  0.00    +0.279 C 
ATOM      5  C   UNL     1       3.362   0.899 -21.781  0.00  0.00    +0.201 C 
ATOM      6  C   UNL     1       3.739   2.136 -21.657  0.00  0.00    +0.179 C 
ENDROOT
BRANCH   5   7
ATOM      7  O   UNL     1       3.721   0.018 -20.896  0.00  0.00    -0.384 OA
ATOM      8  H   UNL     1       3.597  -0.874 -21.257  0.00  0.00    +0.210 HD
ENDBRANCH   5   7
BRANCH   4   9
ATOM      9  O   UNL     1       2.247  -0.696 -22.915  0.00  0.00    -0.365 OA
ATOM     10  H   UNL     1       2.593  -1.058 -23.746  0.00  0.00    +0.213 HD
ENDBRANCH   4   9
BRANCH   1  12
ATOM     11  C   UNL     1       4.865   4.654 -22.968  0.00  0.00    +0.194 C 
ATOM     12  O   UNL     1       3.757   4.255 -22.419  0.00  0.00    -0.375 OA
ENDBRANCH   1  12
BRANCH   6  13
ATOM     13  O   UNL     1       4.477   2.493 -20.648  0.00  0.00    -0.386 OA
ATOM     14  H   UNL     1       4.578   3.458 -20.647  0.00  0.00    +0.210 HD
ENDBRANCH   6  13
BRANCH   2  15
ATOM     15  C   UNL     1       2.282   3.542 -24.438  0.00  0.00    +0.187 C 
BRANCH  15  16
ATOM     16  S   UNL     1       1.078   3.518 -24.926  0.00  0.00    -0.078 S 
ATOM     17  O   UNL     1      -0.127   3.495 -25.414  0.00  0.00    -0.724 OA
ATOM     18  O   UNL     1       0.638   4.137 -23.870  0.00  0.00    -0.185 OA
ATOM     19  O   UNL     1       1.517   2.900 -25.981  0.00  0.00    -0.185 OA
ENDBRANCH  15  16
ENDBRANCH   2  15
TORSDOF 6
ENDMDL
MODEL 7
REMARK VINA RESULT:    -6.321      3.147      4.835
REMARK INTER + INTRA:          -7.587
REMARK INTER:                  -7.957
REMARK INTRA:                   0.370
REMARK UNBOUND:                 0.397
REMARK  Name = ZINC000004104919
REMARK  7 active torsions:
REMARK  status: ('A' for Active; 'I' for Inactive)
REMARK    1  A    between atoms: C_1  and  O_2
REMARK    2  A    between atoms: O_2  and  C_3
REMARK    3  A    between atoms: C_4  and  C_5
REMARK    4  A    between atoms: C_5  and  S_6
REMARK    5  A    between atoms: C_11  and  O_12
REMARK    6  A    between atoms: C_13  and  O_14
REMARK    7  A    between atoms: C_15  and  O_16
REMARK                            x       y       z     vdW  Elec       q    Type
REMARK                         _______ _______ _______ _____ _____    ______ ____
ROOT
ATOM      1  C   UNL     1       1.406   3.619 -23.314  0.00  0.00    +0.179 C 
ATOM      2  C   UNL     1       1.454   2.386 -22.906  0.00  0.00    +0.173 C 
ATOM      3  O   UNL     1       0.413   1.845 -22.346  0.00  0.00    -0.341 OA
ATOM      4  C   UNL     1      -0.677   2.538 -22.194  0.00  0.00    +0.279 C 
ATOM      5  C   UNL     1      -0.725   3.771 -22.601  0.00  0.00    +0.201 C 
ATOM      6  C   UNL     1       0.316   4.312 -23.161  0.00  0.00    +0.179 C 
ENDROOT
BRANCH   5   7
ATOM      7  O   UNL     1      -1.814   4.464 -22.449  0.00  0.00    -0.384 OA
ATOM      8  H   UNL     1      -2.570   3.863 -22.358  0.00  0.00    +0.210 HD
ENDBRANCH   5   7
BRANCH   4   9
ATOM      9  O   UNL     1      -1.717   1.997 -21.634  0.00  0.00    -0.365 OA
ATOM     10  H   UNL     1      -1.578   1.040 -21.548  0.00  0.00    +0.213 HD
ENDBRANCH   4   9
BRANCH   1  12
ATOM     11  C   UNL     1       3.250   4.902 -23.171  0.00  0.00    +0.194 C 
ATOM     12  O   UNL     1       2.447   4.160 -23.874  0.00  0.00    -0.375 OA
ENDBRANCH   1  12
BRANCH   6  13
ATOM     13  O   UNL     1       0.268   5.546 -23.569  0.00  0.00    -0.386 OA
ATOM     14  H   UNL     1       0.063   5.565 -24.517  0.00  0.00    +0.210 HD
ENDBRANCH   6  13
BRANCH   2  15
ATOM     15  C   UNL     1       2.543   1.693 -23.059  0.00  0.00    +0.187 C 
BRANCH  15  16
ATOM     16  S   UNL     1       2.917   0.857 -22.135  0.00  0.00    -0.078 S 
ATOM     17  O   UNL     1       3.290   0.022 -21.212  0.00  0.00    -0.724 OA
ATOM     18  O   UNL     1       3.329   1.850 -21.404  0.00  0.00    -0.185 OA
ATOM     19  O   UNL     1       2.505  -0.135 -22.867  0.00  0.00    -0.185 OA
ENDBRANCH  15  16
ENDBRANCH   2  15
TORSDOF 6
ENDMDL
MODEL 8
REMARK VINA RESULT:    -6.159      2.616      3.643
REMARK INTER + INTRA:          -7.382
REMARK INTER:                  -7.895
REMARK INTRA:                   0.512
REMARK UNBOUND:                 0.397
REMARK  Name = ZINC000004104919
REMARK  7 active torsions:
REMARK  status: ('A' for Active; 'I' for Inactive)
REMARK    1  A    between atoms: C_1  and  O_2
REMARK    2  A    between atoms: O_2  and  C_3
REMARK    3  A    between atoms: C_4  and  C_5
REMARK    4  A    between atoms: C_5  and  S_6
REMARK    5  A    between atoms: C_11  and  O_12
REMARK    6  A    between atoms: C_13  and  O_14
REMARK    7  A    between atoms: C_15  and  O_16
REMARK                            x       y       z     vdW  Elec       q    Type
REMARK                         _______ _______ _______ _____ _____    ______ ____
ROOT
ATOM      1  C   UNL     1      -0.143   2.580 -22.846  0.00  0.00    +0.179 C 
ATOM      2  C   UNL     1       0.978   1.947 -23.026  0.00  0.00    +0.173 C 
ATOM      3  O   UNL     1       1.533   1.927 -24.201  0.00  0.00    -0.341 OA
ATOM      4  C   UNL     1       0.967   2.542 -25.198  0.00  0.00    +0.279 C 
ATOM      5  C   UNL     1      -0.154   3.176 -25.018  0.00  0.00    +0.201 C 
ATOM      6  C   UNL     1      -0.709   3.195 -23.843  0.00  0.00    +0.179 C 
ENDROOT
BRANCH   5   7
ATOM      7  O   UNL     1      -0.720   3.790 -26.014  0.00  0.00    -0.384 OA
ATOM      8  H   UNL     1      -1.281   3.167 -26.502  0.00  0.00    +0.210 HD
ENDBRANCH   5   7
BRANCH   4   9
ATOM      9  O   UNL     1       1.522   2.522 -26.373  0.00  0.00    -0.365 OA
ATOM     10  H   UNL     1       2.421   2.882 -26.312  0.00  0.00    +0.213 HD
ENDBRANCH   4   9
BRANCH   1  12
ATOM     11  C   UNL     1      -1.788   1.926 -21.456  0.00  0.00    +0.194 C 
ATOM     12  O   UNL     1      -0.698   2.600 -21.671  0.00  0.00    -0.375 OA
ENDBRANCH   1  12
BRANCH   6  13
ATOM     13  O   UNL     1      -1.830   3.829 -23.663  0.00  0.00    -0.386 OA
ATOM     14  H   UNL     1      -2.527   3.194 -23.435  0.00  0.00    +0.210 HD
ENDBRANCH   6  13
BRANCH   2  15
ATOM     15  C   UNL     1       1.544   1.332 -22.030  0.00  0.00    +0.187 C 
BRANCH  15  16
ATOM     16  S   UNL     1       2.798   0.999 -22.100  0.00  0.00    -0.078 S 
ATOM     17  O   UNL     1       4.053   0.666 -22.170  0.00  0.00    -0.724 OA
ATOM     18  O   UNL     1       3.131   2.144 -21.582  0.00  0.00    -0.185 OA
ATOM     19  O   UNL     1       2.466  -0.146 -22.618  0.00  0.00    -0.185 OA
ENDBRANCH  15  16
ENDBRANCH   2  15
TORSDOF 6
ENDMDL
MODEL 9
REMARK VINA RESULT:    -6.086      2.067      4.354
REMARK INTER + INTRA:          -7.290
REMARK INTER:                  -7.687
REMARK INTRA:                   0.397
REMARK UNBOUND:                 0.397
REMARK  Name = ZINC000004104919
REMARK  7 active torsions:
REMARK  status: ('A' for Active; 'I' for Inactive)
REMARK    1  A    between atoms: C_1  and  O_2
REMARK    2  A    between atoms: O_2  and  C_3
REMARK    3  A    between atoms: C_4  and  C_5
REMARK    4  A    between atoms: C_5  and  S_6
REMARK    5  A    between atoms: C_11  and  O_12
REMARK    6  A    between atoms: C_13  and  O_14
REMARK    7  A    between atoms: C_15  and  O_16
REMARK                            x       y       z     vdW  Elec       q    Type
REMARK                         _______ _______ _______ _____ _____    ______ ____
ROOT
ATOM      1  C   UNL     1      -0.886   2.556 -23.378  0.00  0.00    +0.179 C 
ATOM      2  C   UNL     1      -1.500   2.997 -24.436  0.00  0.00    +0.173 C 
ATOM      3  O   UNL     1      -0.820   3.530 -25.407  0.00  0.00    -0.341 OA
ATOM      4  C   UNL     1       0.474   3.622 -25.321  0.00  0.00    +0.279 C 
ATOM      5  C   UNL     1       1.088   3.180 -24.264  0.00  0.00    +0.201 C 
ATOM      6  C   UNL     1       0.408   2.647 -23.292  0.00  0.00    +0.179 C 
ENDROOT
BRANCH   5   7
ATOM      7  O   UNL     1       2.381   3.271 -24.177  0.00  0.00    -0.384 OA
ATOM      8  H   UNL     1       2.639   4.206 -24.153  0.00  0.00    +0.210 HD
ENDBRANCH   5   7
BRANCH   4   9
ATOM      9  O   UNL     1       1.154   4.154 -26.292  0.00  0.00    -0.365 OA
ATOM     10  H   UNL     1       0.623   4.848 -26.716  0.00  0.00    +0.213 HD
ENDBRANCH   4   9
BRANCH   1  12
ATOM     11  C   UNL     1      -1.945   2.754 -21.401  0.00  0.00    +0.194 C 
ATOM     12  O   UNL     1      -1.566   2.023 -22.407  0.00  0.00    -0.375 OA
ENDBRANCH   1  12
BRANCH   6  13
ATOM     13  O   UNL     1       1.022   2.206 -22.235  0.00  0.00    -0.386 OA
ATOM     14  H   UNL     1       0.495   2.411 -21.446  0.00  0.00    +0.210 HD
ENDBRANCH   6  13
BRANCH   2  15
ATOM     15  C   UNL     1      -2.794   2.906 -24.522  0.00  0.00    +0.187 C 
BRANCH  15  16
ATOM     16  S   UNL     1      -3.468   3.810 -25.169  0.00  0.00    -0.078 S 
ATOM     17  O   UNL     1      -4.141   4.714 -25.816  0.00  0.00    -0.724 OA
ATOM     18  O   UNL     1      -3.730   2.945 -26.103  0.00  0.00    -0.185 OA
ATOM     19  O   UNL     1      -3.205   4.674 -24.234  0.00  0.00    -0.185 OA
ENDBRANCH  15  16
ENDBRANCH   2  15
TORSDOF 6
ENDMDL
