MODEL 1
REMARK VINA RESULT:   -11.596      0.000      0.000
REMARK INTER + INTRA:         -11.596
REMARK INTER:                 -11.596
REMARK INTRA:                   0.000
REMARK UNBOUND:                 0.000
REMARK  Name = ZINC000020111233
REMARK  1 active torsions:
REMARK  status: ('A' for Active; 'I' for Inactive)
REMARK    1  A    between atoms: C_1  and  N_2
REMARK                            x       y       z     vdW  Elec       q    Type
REMARK                         _______ _______ _______ _____ _____    ______ ____
ROOT
ATOM      1  C   UNL     1       0.595   3.565 -25.848  0.00  0.00    +0.191 C 
ATOM      2  N   UNL     1      -0.026   3.206 -24.764  0.00  0.00    +0.237 N 
ATOM      3  H   UNL     1       0.476   2.731 -24.013  0.00  0.00    +0.203 HD
ATOM      4  C   UNL     1       0.622   2.601 -23.813  0.00  0.00    +0.136 C 
ATOM      5  C   UNL     1       1.892   2.355 -23.946  0.00  0.00    +0.087 C 
ATOM      6  C   UNL     1       2.540   1.750 -22.996  0.00  0.00    -0.028 A 
ATOM      7  C   UNL     1       3.810   1.504 -23.129  0.00  0.00    +0.054 A 
ATOM      8  C   UNL     1       4.457   0.899 -22.179  0.00  0.00    +0.167 A 
ATOM      9  C   UNL     1       3.836   0.541 -21.095  0.00  0.00    +0.167 A 
ATOM     10  O   UNL     1       4.698  -0.038 -20.310  0.00  0.00    -0.453 OA
ATOM     11  C   UNL     1       5.851  -0.036 -20.910  0.00  0.00    +0.466 C 
ATOM     12  C   UNL     1       2.567   0.786 -20.961  0.00  0.00    +0.061 A 
ATOM     13  O   UNL     1       5.703   0.543 -22.065  0.00  0.00    -0.453 OA
ATOM     14  C   UNL     1       1.919   1.391 -21.912  0.00  0.00    +0.025 A 
ATOM     15  C   UNL     1       0.649   1.637 -21.778  0.00  0.00    +0.168 C 
ATOM     16  C   UNL     1       0.001   2.243 -22.729  0.00  0.00    +0.115 C 
ATOM     17  C   UNL     1      -1.269   2.489 -22.596  0.00  0.00    -0.028 A 
ATOM     18  C   UNL     1      -1.890   2.130 -21.512  0.00  0.00    +0.008 A 
ATOM     19  C   UNL     1      -3.160   2.376 -21.378  0.00  0.00    +0.050 A 
ATOM     20  C   UNL     1      -3.807   2.981 -22.329  0.00  0.00    +0.167 A 
ATOM     21  C   UNL     1      -3.186   3.339 -23.413  0.00  0.00    +0.175 A 
ATOM     22  O   UNL     1      -4.047   3.918 -24.197  0.00  0.00    -0.452 OA
ATOM     23  C   UNL     1      -5.201   3.916 -23.597  0.00  0.00    +0.466 C 
ATOM     24  O   UNL     1      -5.053   3.337 -22.442  0.00  0.00    -0.453 OA
ATOM     25  C   UNL     1      -1.917   3.094 -23.546  0.00  0.00    +0.046 A 
ATOM     26  O   UNL     1       0.028   1.279 -20.694  0.00  0.00    -0.292 OA
ATOM     27  C   UNL     1      -1.296   3.453 -24.630  0.00  0.00    +0.171 C 
ENDROOT
TORSDOF 0
ENDMDL
MODEL 2
REMARK VINA RESULT:   -11.579      1.099      6.854
REMARK INTER + INTRA:         -11.579
REMARK INTER:                 -11.579
REMARK INTRA:                   0.000
REMARK UNBOUND:                 0.000
REMARK  Name = ZINC000020111233
REMARK  1 active torsions:
REMARK  status: ('A' for Active; 'I' for Inactive)
REMARK    1  A    between atoms: C_1  and  N_2
REMARK                            x       y       z     vdW  Elec       q    Type
REMARK                         _______ _______ _______ _____ _____    ______ ____
ROOT
ATOM      1  C   UNL     1       1.173   4.363 -25.565  0.00  0.00    +0.191 C 
ATOM      2  N   UNL     1       1.345   3.675 -24.475  0.00  0.00    +0.237 N 
ATOM      3  H   UNL     1       0.546   3.415 -23.896  0.00  0.00    +0.203 HD
ATOM      4  C   UNL     1       0.321   3.349 -23.744  0.00  0.00    +0.136 C 
ATOM      5  C   UNL     1      -0.875   3.711 -24.102  0.00  0.00    +0.087 C 
ATOM      6  C   UNL     1      -1.899   3.385 -23.370  0.00  0.00    -0.028 A 
ATOM      7  C   UNL     1      -3.096   3.746 -23.728  0.00  0.00    +0.054 A 
ATOM      8  C   UNL     1      -4.119   3.420 -22.997  0.00  0.00    +0.167 A 
ATOM      9  C   UNL     1      -3.946   2.732 -21.907  0.00  0.00    +0.167 A 
ATOM     10  O   UNL     1      -5.113   2.539 -21.365  0.00  0.00    -0.453 OA
ATOM     11  C   UNL     1      -6.006   3.108 -22.120  0.00  0.00    +0.466 C 
ATOM     12  C   UNL     1      -2.751   2.371 -21.549  0.00  0.00    +0.061 A 
ATOM     13  O   UNL     1      -5.392   3.653 -23.129  0.00  0.00    -0.453 OA
ATOM     14  C   UNL     1      -1.727   2.697 -22.281  0.00  0.00    +0.025 A 
ATOM     15  C   UNL     1      -0.531   2.335 -21.923  0.00  0.00    +0.168 C 
ATOM     16  C   UNL     1       0.494   2.661 -22.654  0.00  0.00    +0.115 C 
ATOM     17  C   UNL     1       1.690   2.299 -22.296  0.00  0.00    -0.028 A 
ATOM     18  C   UNL     1       1.862   1.611 -21.207  0.00  0.00    +0.008 A 
ATOM     19  C   UNL     1       3.059   1.250 -20.849  0.00  0.00    +0.050 A 
ATOM     20  C   UNL     1       4.082   1.576 -21.580  0.00  0.00    +0.167 A 
ATOM     21  C   UNL     1       3.909   2.263 -22.670  0.00  0.00    +0.175 A 
ATOM     22  O   UNL     1       5.076   2.456 -23.212  0.00  0.00    -0.452 OA
ATOM     23  C   UNL     1       5.969   1.888 -22.457  0.00  0.00    +0.466 C 
ATOM     24  O   UNL     1       5.355   1.343 -21.448  0.00  0.00    -0.453 OA
ATOM     25  C   UNL     1       2.714   2.625 -23.028  0.00  0.00    +0.046 A 
ATOM     26  O   UNL     1      -0.358   1.647 -20.833  0.00  0.00    -0.292 OA
ATOM     27  C   UNL     1       2.542   3.313 -24.117  0.00  0.00    +0.171 C 
ENDROOT
TORSDOF 0
ENDMDL
MODEL 3
REMARK VINA RESULT:    -9.949      3.501      4.361
REMARK INTER + INTRA:          -9.949
REMARK INTER:                  -9.949
REMARK INTRA:                   0.000
REMARK UNBOUND:                 0.000
REMARK  Name = ZINC000020111233
REMARK  1 active torsions:
REMARK  status: ('A' for Active; 'I' for Inactive)
REMARK    1  A    between atoms: C_1  and  N_2
REMARK                            x       y       z     vdW  Elec       q    Type
REMARK                         _______ _______ _______ _____ _____    ______ ____
ROOT
ATOM      1  C   UNL     1       3.212   0.751 -24.487  0.00  0.00    +0.191 C 
ATOM      2  N   UNL     1       2.647   1.868 -24.136  0.00  0.00    +0.237 N 
ATOM      3  H   UNL     1       3.211   2.652 -23.807  0.00  0.00    +0.203 HD
ATOM      4  C   UNL     1       3.374   2.861 -23.719  0.00  0.00    +0.136 C 
ATOM      5  C   UNL     1       4.667   2.738 -23.652  0.00  0.00    +0.087 C 
ATOM      6  C   UNL     1       5.394   3.731 -23.234  0.00  0.00    -0.028 A 
ATOM      7  C   UNL     1       6.687   3.608 -23.167  0.00  0.00    +0.054 A 
ATOM      8  C   UNL     1       7.413   4.601 -22.750  0.00  0.00    +0.167 A 
ATOM      9  C   UNL     1       6.848   5.718 -22.399  0.00  0.00    +0.167 A 
ATOM     10  O   UNL     1       7.783   6.541 -22.024  0.00  0.00    -0.453 OA
ATOM     11  C   UNL     1       8.925   5.932 -22.144  0.00  0.00    +0.466 C 
ATOM     12  C   UNL     1       5.556   5.842 -22.466  0.00  0.00    +0.061 A 
ATOM     13  O   UNL     1       8.697   4.733 -22.592  0.00  0.00    -0.453 OA
ATOM     14  C   UNL     1       4.829   4.848 -22.883  0.00  0.00    +0.025 A 
ATOM     15  C   UNL     1       3.536   4.972 -22.950  0.00  0.00    +0.168 C 
ATOM     16  C   UNL     1       2.809   3.978 -23.368  0.00  0.00    +0.115 C 
ATOM     17  C   UNL     1       1.516   4.102 -23.435  0.00  0.00    -0.028 A 
ATOM     18  C   UNL     1       0.951   5.219 -23.084  0.00  0.00    +0.008 A 
ATOM     19  C   UNL     1      -0.341   5.343 -23.151  0.00  0.00    +0.050 A 
ATOM     20  C   UNL     1      -1.068   4.350 -23.568  0.00  0.00    +0.167 A 
ATOM     21  C   UNL     1      -0.503   3.233 -23.919  0.00  0.00    +0.175 A 
ATOM     22  O   UNL     1      -1.437   2.409 -24.294  0.00  0.00    -0.452 OA
ATOM     23  C   UNL     1      -2.580   3.018 -24.174  0.00  0.00    +0.466 C 
ATOM     24  O   UNL     1      -2.352   4.217 -23.726  0.00  0.00    -0.453 OA
ATOM     25  C   UNL     1       0.789   3.109 -23.853  0.00  0.00    +0.046 A 
ATOM     26  O   UNL     1       2.971   6.089 -22.600  0.00  0.00    -0.292 OA
ATOM     27  C   UNL     1       1.354   1.992 -24.203  0.00  0.00    +0.171 C 
ENDROOT
TORSDOF 0
ENDMDL
MODEL 4
REMARK VINA RESULT:    -9.924      2.709      7.508
REMARK INTER + INTRA:          -9.924
REMARK INTER:                  -9.924
REMARK INTRA:                   0.000
REMARK UNBOUND:                 0.000
REMARK  Name = ZINC000020111233
REMARK  1 active torsions:
REMARK  status: ('A' for Active; 'I' for Inactive)
REMARK    1  A    between atoms: C_1  and  N_2
REMARK                            x       y       z     vdW  Elec       q    Type
REMARK                         _______ _______ _______ _____ _____    ______ ____
ROOT
ATOM      1  C   UNL     1       2.691   0.290 -22.500  0.00  0.00    +0.191 C 
ATOM      2  N   UNL     1       2.937   1.559 -22.639  0.00  0.00    +0.237 N 
ATOM      3  H   UNL     1       2.189   2.205 -22.896  0.00  0.00    +0.203 HD
ATOM      4  C   UNL     1       1.978   2.374 -22.966  0.00  0.00    +0.136 C 
ATOM      5  C   UNL     1       0.774   1.921 -23.154  0.00  0.00    +0.087 C 
ATOM      6  C   UNL     1      -0.184   2.736 -23.480  0.00  0.00    -0.028 A 
ATOM      7  C   UNL     1      -1.388   2.283 -23.668  0.00  0.00    +0.054 A 
ATOM      8  C   UNL     1      -2.346   3.098 -23.994  0.00  0.00    +0.167 A 
ATOM      9  C   UNL     1      -2.100   4.367 -24.133  0.00  0.00    +0.167 A 
ATOM     10  O   UNL     1      -3.212   4.958 -24.458  0.00  0.00    -0.453 OA
ATOM     11  C   UNL     1      -4.144   4.054 -24.520  0.00  0.00    +0.466 C 
ATOM     12  C   UNL     1      -0.897   4.821 -23.946  0.00  0.00    +0.061 A 
ATOM     13  O   UNL     1      -3.610   2.905 -24.234  0.00  0.00    -0.453 OA
ATOM     14  C   UNL     1       0.061   4.005 -23.619  0.00  0.00    +0.025 A 
ATOM     15  C   UNL     1       1.265   4.459 -23.431  0.00  0.00    +0.168 C 
ATOM     16  C   UNL     1       2.224   3.643 -23.105  0.00  0.00    +0.115 C 
ATOM     17  C   UNL     1       3.427   4.097 -22.917  0.00  0.00    -0.028 A 
ATOM     18  C   UNL     1       3.673   5.366 -23.056  0.00  0.00    +0.008 A 
ATOM     19  C   UNL     1       4.877   5.819 -22.868  0.00  0.00    +0.050 A 
ATOM     20  C   UNL     1       5.834   5.004 -22.542  0.00  0.00    +0.167 A 
ATOM     21  C   UNL     1       5.589   3.735 -22.403  0.00  0.00    +0.175 A 
ATOM     22  O   UNL     1       6.701   3.144 -22.078  0.00  0.00    -0.452 OA
ATOM     23  C   UNL     1       7.633   4.048 -22.016  0.00  0.00    +0.466 C 
ATOM     24  O   UNL     1       7.098   5.198 -22.303  0.00  0.00    -0.453 OA
ATOM     25  C   UNL     1       4.386   3.281 -22.591  0.00  0.00    +0.046 A 
ATOM     26  O   UNL     1       1.511   5.728 -23.570  0.00  0.00    -0.292 OA
ATOM     27  C   UNL     1       4.140   2.012 -22.452  0.00  0.00    +0.171 C 
ENDROOT
TORSDOF 0
ENDMDL
MODEL 5
REMARK VINA RESULT:    -9.410      1.897      3.009
REMARK INTER + INTRA:          -9.410
REMARK INTER:                  -9.410
REMARK INTRA:                   0.000
REMARK UNBOUND:                 0.000
REMARK  Name = ZINC000020111233
REMARK  1 active torsions:
REMARK  status: ('A' for Active; 'I' for Inactive)
REMARK    1  A    between atoms: C_1  and  N_2
REMARK                            x       y       z     vdW  Elec       q    Type
REMARK                         _______ _______ _______ _____ _____    ______ ____
ROOT
ATOM      1  C   UNL     1      -0.947   0.798 -20.711  0.00  0.00    +0.191 C 
ATOM      2  N   UNL     1      -1.047   1.718 -21.624  0.00  0.00    +0.237 N 
ATOM      3  H   UNL     1      -0.210   2.130 -22.037  0.00  0.00    +0.203 HD
ATOM      4  C   UNL     1       0.025   2.237 -22.145  0.00  0.00    +0.136 C 
ATOM      5  C   UNL     1       1.198   1.836 -21.752  0.00  0.00    +0.087 C 
ATOM      6  C   UNL     1       2.271   2.355 -22.272  0.00  0.00    -0.028 A 
ATOM      7  C   UNL     1       3.443   1.954 -21.879  0.00  0.00    +0.054 A 
ATOM      8  C   UNL     1       4.515   2.473 -22.399  0.00  0.00    +0.167 A 
ATOM      9  C   UNL     1       4.415   3.393 -23.312  0.00  0.00    +0.167 A 
ATOM     10  O   UNL     1       5.617   3.742 -23.664  0.00  0.00    -0.453 OA
ATOM     11  C   UNL     1       6.460   3.038 -22.968  0.00  0.00    +0.466 C 
ATOM     12  C   UNL     1       3.243   3.794 -23.705  0.00  0.00    +0.061 A 
ATOM     13  O   UNL     1       5.779   2.253 -22.186  0.00  0.00    -0.453 OA
ATOM     14  C   UNL     1       2.170   3.275 -23.185  0.00  0.00    +0.025 A 
ATOM     15  C   UNL     1       0.998   3.676 -23.578  0.00  0.00    +0.168 C 
ATOM     16  C   UNL     1      -0.075   3.157 -23.058  0.00  0.00    +0.115 C 
ATOM     17  C   UNL     1      -1.248   3.557 -23.451  0.00  0.00    -0.028 A 
ATOM     18  C   UNL     1      -1.348   4.477 -24.364  0.00  0.00    +0.008 A 
ATOM     19  C   UNL     1      -2.520   4.878 -24.757  0.00  0.00    +0.050 A 
ATOM     20  C   UNL     1      -3.592   4.359 -24.237  0.00  0.00    +0.167 A 
ATOM     21  C   UNL     1      -3.492   3.439 -23.324  0.00  0.00    +0.175 A 
ATOM     22  O   UNL     1      -4.694   3.090 -22.971  0.00  0.00    -0.452 OA
ATOM     23  C   UNL     1      -5.537   3.794 -23.667  0.00  0.00    +0.466 C 
ATOM     24  O   UNL     1      -4.856   4.579 -24.449  0.00  0.00    -0.453 OA
ATOM     25  C   UNL     1      -2.320   3.038 -22.931  0.00  0.00    +0.046 A 
ATOM     26  O   UNL     1       0.898   4.595 -24.491  0.00  0.00    -0.292 OA
ATOM     27  C   UNL     1      -2.220   2.119 -22.017  0.00  0.00    +0.171 C 
ENDROOT
TORSDOF 0
ENDMDL
