MODEL 1
REMARK VINA RESULT:    -9.642      0.000      0.000
REMARK INTER + INTRA:         -11.355
REMARK INTER:                 -11.036
REMARK INTRA:                  -0.319
REMARK UNBOUND:                -0.303
REMARK  Name = ZINC000000338222
REMARK  5 active torsions:
REMARK  status: ('A' for Active; 'I' for Inactive)
REMARK    1  A    between atoms: C_1  and  O_2
REMARK    2  A    between atoms: O_2  and  C_3
REMARK    3  A    between atoms: C_7  and  C_8
REMARK    4  A    between atoms: C_18  and  O_19
REMARK    5  A    between atoms: C_20  and  C_21
REMARK                            x       y       z     vdW  Elec       q    Type
REMARK                         _______ _______ _______ _____ _____    ______ ____
ROOT
ATOM      1  C   UNL     1       2.562   1.349 -22.241  0.00  0.00    +0.130 A 
ATOM      2  C   UNL     1       1.284   1.279 -22.014  0.00  0.00    +0.093 A 
ATOM      3  C   UNL     1       0.508   2.260 -22.367  0.00  0.00    +0.146 A 
ATOM      4  O   UNL     1      -0.771   2.191 -22.140  0.00  0.00    -0.454 OA
ATOM      5  C   UNL     1      -1.547   3.173 -22.493  0.00  0.00    +0.139 A 
ATOM      6  C   UNL     1      -1.046   4.223 -23.072  0.00  0.00    +0.098 A 
ATOM      7  C   UNL     1       0.232   4.292 -23.298  0.00  0.00    +0.197 A 
ATOM      8  O   UNL     1       0.735   5.342 -23.877  0.00  0.00    -0.287 OA
ATOM      9  C   UNL     1       1.010   3.311 -22.946  0.00  0.00    +0.106 A 
ATOM     10  C   UNL     1       2.287   3.380 -23.172  0.00  0.00    +0.138 A 
ATOM     11  C   UNL     1       3.064   2.399 -22.819  0.00  0.00    +0.033 A 
ATOM     12  C   UNL     1       4.343   2.468 -23.046  0.00  0.00    +0.051 C 
ENDROOT
BRANCH   5  13
ATOM     13  C   UNL     1      -2.825   3.102 -22.266  0.00  0.00    +0.017 A 
ATOM     14  C   UNL     1      -3.262   2.560 -21.167  0.00  0.00    +0.011 A 
ATOM     15  C   UNL     1      -4.539   2.490 -20.939  0.00  0.00    +0.001 A 
ATOM     16  C   UNL     1      -5.381   2.961 -21.810  0.00  0.00    +0.000 A 
ATOM     17  C   UNL     1      -4.946   3.503 -22.909  0.00  0.00    +0.001 A 
ATOM     18  C   UNL     1      -3.668   3.574 -23.137  0.00  0.00    +0.011 A 
ENDBRANCH   5  13
BRANCH   1  20
ATOM     19  C   UNL     1       3.781   0.294 -20.668  0.00  0.00    +0.277 C 
ATOM     20  O   UNL     1       3.339   0.367 -21.888  0.00  0.00    -0.495 OA
ENDBRANCH   1  20
BRANCH  10  21
ATOM     21  O   UNL     1       2.789   4.431 -23.751  0.00  0.00    -0.506 OA
ATOM     22  H   UNL     1       3.712   4.487 -23.901  0.00  0.00    +0.292 HD
ENDBRANCH  10  21
TORSDOF 3
ENDMDL
MODEL 2
REMARK VINA RESULT:    -9.063      1.713      3.085
REMARK INTER + INTRA:         -10.690
REMARK INTER:                 -10.296
REMARK INTRA:                  -0.395
REMARK UNBOUND:                -0.303
REMARK  Name = ZINC000000338222
REMARK  5 active torsions:
REMARK  status: ('A' for Active; 'I' for Inactive)
REMARK    1  A    between atoms: C_1  and  O_2
REMARK    2  A    between atoms: O_2  and  C_3
REMARK    3  A    between atoms: C_7  and  C_8
REMARK    4  A    between atoms: C_18  and  O_19
REMARK    5  A    between atoms: C_20  and  C_21
REMARK                            x       y       z     vdW  Elec       q    Type
REMARK                         _______ _______ _______ _____ _____    ______ ____
ROOT
ATOM      1  C   UNL     1       3.667   2.939 -23.009  0.00  0.00    +0.130 A 
ATOM      2  C   UNL     1       2.595   3.261 -23.669  0.00  0.00    +0.093 A 
ATOM      3  C   UNL     1       1.429   2.879 -23.240  0.00  0.00    +0.146 A 
ATOM      4  O   UNL     1       0.355   3.200 -23.900  0.00  0.00    -0.454 OA
ATOM      5  C   UNL     1      -0.811   2.818 -23.470  0.00  0.00    +0.139 A 
ATOM      6  C   UNL     1      -0.904   2.114 -22.381  0.00  0.00    +0.098 A 
ATOM      7  C   UNL     1       0.169   1.793 -21.721  0.00  0.00    +0.197 A 
ATOM      8  O   UNL     1       0.076   1.089 -20.632  0.00  0.00    -0.287 OA
ATOM      9  C   UNL     1       1.336   2.175 -22.151  0.00  0.00    +0.106 A 
ATOM     10  C   UNL     1       2.408   1.853 -21.491  0.00  0.00    +0.138 A 
ATOM     11  C   UNL     1       3.574   2.236 -21.920  0.00  0.00    +0.033 A 
ATOM     12  C   UNL     1       4.647   1.914 -21.260  0.00  0.00    +0.051 C 
ENDROOT
BRANCH   5  13
ATOM     13  C   UNL     1      -1.883   3.140 -24.131  0.00  0.00    +0.017 A 
ATOM     14  C   UNL     1      -3.004   3.328 -23.499  0.00  0.00    +0.011 A 
ATOM     15  C   UNL     1      -4.076   3.650 -24.158  0.00  0.00    +0.001 A 
ATOM     16  C   UNL     1      -4.029   3.784 -25.451  0.00  0.00    +0.000 A 
ATOM     17  C   UNL     1      -2.909   3.596 -26.083  0.00  0.00    +0.001 A 
ATOM     18  C   UNL     1      -1.836   3.274 -25.423  0.00  0.00    +0.011 A 
ENDBRANCH   5  13
BRANCH   1  20
ATOM     19  C   UNL     1       5.223   4.548 -23.257  0.00  0.00    +0.277 C 
ATOM     20  O   UNL     1       4.834   3.321 -23.439  0.00  0.00    -0.495 OA
ENDBRANCH   1  20
BRANCH  10  21
ATOM     21  O   UNL     1       2.315   1.150 -20.402  0.00  0.00    -0.506 OA
ATOM     22  H   UNL     1       1.518   1.152 -19.910  0.00  0.00    +0.292 HD
ENDBRANCH  10  21
TORSDOF 3
ENDMDL
MODEL 3
REMARK VINA RESULT:    -9.027      2.116      6.460
REMARK INTER + INTRA:         -10.649
REMARK INTER:                 -10.063
REMARK INTRA:                  -0.586
REMARK UNBOUND:                -0.303
REMARK  Name = ZINC000000338222
REMARK  5 active torsions:
REMARK  status: ('A' for Active; 'I' for Inactive)
REMARK    1  A    between atoms: C_1  and  O_2
REMARK    2  A    between atoms: O_2  and  C_3
REMARK    3  A    between atoms: C_7  and  C_8
REMARK    4  A    between atoms: C_18  and  O_19
REMARK    5  A    between atoms: C_20  and  C_21
REMARK                            x       y       z     vdW  Elec       q    Type
REMARK                         _______ _______ _______ _____ _____    ______ ____
ROOT
ATOM      1  C   UNL     1      -3.174   3.704 -25.150  0.00  0.00    +0.130 A 
ATOM      2  C   UNL     1      -1.943   3.298 -25.049  0.00  0.00    +0.093 A 
ATOM      3  C   UNL     1      -1.474   2.925 -23.896  0.00  0.00    +0.146 A 
ATOM      4  O   UNL     1      -0.242   2.520 -23.795  0.00  0.00    -0.454 OA
ATOM      5  C   UNL     1       0.226   2.147 -22.641  0.00  0.00    +0.139 A 
ATOM      6  C   UNL     1      -0.535   2.179 -21.588  0.00  0.00    +0.098 A 
ATOM      7  C   UNL     1      -1.766   2.584 -21.689  0.00  0.00    +0.197 A 
ATOM      8  O   UNL     1      -2.529   2.617 -20.637  0.00  0.00    -0.287 OA
ATOM      9  C   UNL     1      -2.236   2.958 -22.843  0.00  0.00    +0.106 A 
ATOM     10  C   UNL     1      -3.466   3.363 -22.943  0.00  0.00    +0.138 A 
ATOM     11  C   UNL     1      -3.935   3.736 -24.097  0.00  0.00    +0.033 A 
ATOM     12  C   UNL     1      -5.167   4.142 -24.198  0.00  0.00    +0.051 C 
ENDROOT
BRANCH   5  13
ATOM     13  C   UNL     1       1.458   1.741 -22.542  0.00  0.00    +0.017 A 
ATOM     14  C   UNL     1       1.936   1.396 -21.383  0.00  0.00    +0.011 A 
ATOM     15  C   UNL     1       3.167   0.990 -21.282  0.00  0.00    +0.001 A 
ATOM     16  C   UNL     1       3.920   0.930 -22.340  0.00  0.00    +0.000 A 
ATOM     17  C   UNL     1       3.442   1.275 -23.499  0.00  0.00    +0.001 A 
ATOM     18  C   UNL     1       2.211   1.681 -23.600  0.00  0.00    +0.011 A 
ENDBRANCH   5  13
BRANCH   1  20
ATOM     19  C   UNL     1      -3.288   3.448 -27.384  0.00  0.00    +0.277 C 
ATOM     20  O   UNL     1      -3.643   4.077 -26.304  0.00  0.00    -0.495 OA
ENDBRANCH   1  20
BRANCH  10  21
ATOM     21  O   UNL     1      -4.228   3.396 -21.890  0.00  0.00    -0.506 OA
ATOM     22  H   UNL     1      -4.624   2.608 -21.574  0.00  0.00    +0.292 HD
ENDBRANCH  10  21
TORSDOF 3
ENDMDL
MODEL 4
REMARK VINA RESULT:    -8.911      1.957      6.259
REMARK INTER + INTRA:         -10.516
REMARK INTER:                  -9.949
REMARK INTRA:                  -0.568
REMARK UNBOUND:                -0.303
REMARK  Name = ZINC000000338222
REMARK  5 active torsions:
REMARK  status: ('A' for Active; 'I' for Inactive)
REMARK    1  A    between atoms: C_1  and  O_2
REMARK    2  A    between atoms: O_2  and  C_3
REMARK    3  A    between atoms: C_7  and  C_8
REMARK    4  A    between atoms: C_18  and  O_19
REMARK    5  A    between atoms: C_20  and  C_21
REMARK                            x       y       z     vdW  Elec       q    Type
REMARK                         _______ _______ _______ _____ _____    ______ ____
ROOT
ATOM      1  C   UNL     1      -3.167   3.369 -21.741  0.00  0.00    +0.130 A 
ATOM      2  C   UNL     1      -1.871   3.312 -21.674  0.00  0.00    +0.093 A 
ATOM      3  C   UNL     1      -1.162   3.366 -22.762  0.00  0.00    +0.146 A 
ATOM      4  O   UNL     1       0.136   3.309 -22.696  0.00  0.00    -0.454 OA
ATOM      5  C   UNL     1       0.845   3.362 -23.784  0.00  0.00    +0.139 A 
ATOM      6  C   UNL     1       0.257   3.472 -24.939  0.00  0.00    +0.098 A 
ATOM      7  C   UNL     1      -1.039   3.529 -25.005  0.00  0.00    +0.197 A 
ATOM      8  O   UNL     1      -1.628   3.638 -26.159  0.00  0.00    -0.287 OA
ATOM      9  C   UNL     1      -1.749   3.475 -23.917  0.00  0.00    +0.106 A 
ATOM     10  C   UNL     1      -3.046   3.532 -23.983  0.00  0.00    +0.138 A 
ATOM     11  C   UNL     1      -3.755   3.479 -22.895  0.00  0.00    +0.033 A 
ATOM     12  C   UNL     1      -5.053   3.535 -22.961  0.00  0.00    +0.051 C 
ENDROOT
BRANCH   5  13
ATOM     13  C   UNL     1       2.142   3.305 -23.717  0.00  0.00    +0.017 A 
ATOM     14  C   UNL     1       2.814   4.319 -23.256  0.00  0.00    +0.011 A 
ATOM     15  C   UNL     1       4.111   4.264 -23.189  0.00  0.00    +0.001 A 
ATOM     16  C   UNL     1       4.736   3.194 -23.582  0.00  0.00    +0.000 A 
ATOM     17  C   UNL     1       4.066   2.180 -24.042  0.00  0.00    +0.001 A 
ATOM     18  C   UNL     1       2.768   2.236 -24.110  0.00  0.00    +0.011 A 
ENDBRANCH   5  13
BRANCH   1  20
ATOM     19  C   UNL     1      -3.358   3.683 -19.519  0.00  0.00    +0.277 C 
ATOM     20  O   UNL     1      -3.877   3.316 -20.652  0.00  0.00    -0.495 OA
ENDBRANCH   1  20
BRANCH  10  21
ATOM     21  O   UNL     1      -3.634   3.642 -25.137  0.00  0.00    -0.506 OA
ATOM     22  H   UNL     1      -4.040   2.894 -25.529  0.00  0.00    +0.292 HD
ENDBRANCH  10  21
TORSDOF 3
ENDMDL
MODEL 5
REMARK VINA RESULT:    -8.880      1.333      2.825
REMARK INTER + INTRA:         -10.481
REMARK INTER:                 -10.067
REMARK INTRA:                  -0.414
REMARK UNBOUND:                -0.303
REMARK  Name = ZINC000000338222
REMARK  5 active torsions:
REMARK  status: ('A' for Active; 'I' for Inactive)
REMARK    1  A    between atoms: C_1  and  O_2
REMARK    2  A    between atoms: O_2  and  C_3
REMARK    3  A    between atoms: C_7  and  C_8
REMARK    4  A    between atoms: C_18  and  O_19
REMARK    5  A    between atoms: C_20  and  C_21
REMARK                            x       y       z     vdW  Elec       q    Type
REMARK                         _______ _______ _______ _____ _____    ______ ____
ROOT
ATOM      1  C   UNL     1       2.267   4.640 -23.211  0.00  0.00    +0.130 A 
ATOM      2  C   UNL     1       0.978   4.809 -23.207  0.00  0.00    +0.093 A 
ATOM      3  C   UNL     1       0.193   3.810 -22.931  0.00  0.00    +0.146 A 
ATOM      4  O   UNL     1      -1.096   3.979 -22.927  0.00  0.00    -0.454 OA
ATOM      5  C   UNL     1      -1.881   2.980 -22.651  0.00  0.00    +0.139 A 
ATOM      6  C   UNL     1      -1.378   1.813 -22.378  0.00  0.00    +0.098 A 
ATOM      7  C   UNL     1      -0.089   1.645 -22.381  0.00  0.00    +0.197 A 
ATOM      8  O   UNL     1       0.416   0.478 -22.108  0.00  0.00    -0.287 OA
ATOM      9  C   UNL     1       0.697   2.643 -22.658  0.00  0.00    +0.106 A 
ATOM     10  C   UNL     1       1.986   2.475 -22.661  0.00  0.00    +0.138 A 
ATOM     11  C   UNL     1       2.771   3.473 -22.938  0.00  0.00    +0.033 A 
ATOM     12  C   UNL     1       4.060   3.305 -22.941  0.00  0.00    +0.051 C 
ENDROOT
BRANCH   5  13
ATOM     13  C   UNL     1      -3.170   3.150 -22.648  0.00  0.00    +0.017 A 
ATOM     14  C   UNL     1      -3.869   2.801 -21.607  0.00  0.00    +0.011 A 
ATOM     15  C   UNL     1      -5.157   2.970 -21.603  0.00  0.00    +0.001 A 
ATOM     16  C   UNL     1      -5.748   3.488 -22.639  0.00  0.00    +0.000 A 
ATOM     17  C   UNL     1      -5.051   3.837 -23.679  0.00  0.00    +0.001 A 
ATOM     18  C   UNL     1      -3.761   3.668 -23.683  0.00  0.00    +0.011 A 
ENDBRANCH   5  13
BRANCH   1  20
ATOM     19  C   UNL     1       3.240   6.580 -22.611  0.00  0.00    +0.277 C 
ATOM     20  O   UNL     1       3.053   5.639 -23.487  0.00  0.00    -0.495 OA
ENDBRANCH   1  20
BRANCH  10  21
ATOM     21  O   UNL     1       2.489   1.308 -22.388  0.00  0.00    -0.506 OA
ATOM     22  H   UNL     1       2.664   1.069 -21.499  0.00  0.00    +0.292 HD
ENDBRANCH  10  21
TORSDOF 3
ENDMDL
MODEL 6
REMARK VINA RESULT:    -8.800      1.699      6.105
REMARK INTER + INTRA:         -10.389
REMARK INTER:                  -9.813
REMARK INTRA:                  -0.576
REMARK UNBOUND:                -0.303
REMARK  Name = ZINC000000338222
REMARK  5 active torsions:
REMARK  status: ('A' for Active; 'I' for Inactive)
REMARK    1  A    between atoms: C_1  and  O_2
REMARK    2  A    between atoms: O_2  and  C_3
REMARK    3  A    between atoms: C_7  and  C_8
REMARK    4  A    between atoms: C_18  and  O_19
REMARK    5  A    between atoms: C_20  and  C_21
REMARK                            x       y       z     vdW  Elec       q    Type
REMARK                         _______ _______ _______ _____ _____    ______ ____
ROOT
ATOM      1  C   UNL     1      -2.361   2.911 -22.820  0.00  0.00    +0.130 A 
ATOM      2  C   UNL     1      -1.298   2.556 -22.161  0.00  0.00    +0.093 A 
ATOM      3  C   UNL     1      -0.146   2.512 -22.762  0.00  0.00    +0.146 A 
ATOM      4  O   UNL     1       0.918   2.158 -22.103  0.00  0.00    -0.454 OA
ATOM      5  C   UNL     1       2.069   2.114 -22.703  0.00  0.00    +0.139 A 
ATOM      6  C   UNL     1       2.159   2.425 -23.963  0.00  0.00    +0.098 A 
ATOM      7  C   UNL     1       1.096   2.779 -24.621  0.00  0.00    +0.197 A 
ATOM      8  O   UNL     1       1.184   3.089 -25.881  0.00  0.00    -0.287 OA
ATOM      9  C   UNL     1      -0.057   2.823 -24.021  0.00  0.00    +0.106 A 
ATOM     10  C   UNL     1      -1.120   3.177 -24.680  0.00  0.00    +0.138 A 
ATOM     11  C   UNL     1      -2.272   3.221 -24.079  0.00  0.00    +0.033 A 
ATOM     12  C   UNL     1      -3.336   3.575 -24.738  0.00  0.00    +0.051 C 
ENDROOT
BRANCH   5  13
ATOM     13  C   UNL     1       3.132   1.760 -22.044  0.00  0.00    +0.017 A 
ATOM     14  C   UNL     1       3.149   0.632 -21.396  0.00  0.00    +0.011 A 
ATOM     15  C   UNL     1       4.211   0.277 -20.737  0.00  0.00    +0.001 A 
ATOM     16  C   UNL     1       5.257   1.049 -20.724  0.00  0.00    +0.000 A 
ATOM     17  C   UNL     1       5.240   2.177 -21.370  0.00  0.00    +0.001 A 
ATOM     18  C   UNL     1       4.178   2.532 -22.031  0.00  0.00    +0.011 A 
ENDBRANCH   5  13
BRANCH   1  20
ATOM     19  C   UNL     1      -3.583   3.307 -20.971  0.00  0.00    +0.277 C 
ATOM     20  O   UNL     1      -3.514   2.955 -22.220  0.00  0.00    -0.495 OA
ENDBRANCH   1  20
BRANCH  10  21
ATOM     21  O   UNL     1      -1.031   3.487 -25.939  0.00  0.00    -0.506 OA
ATOM     22  H   UNL     1      -0.593   2.911 -26.534  0.00  0.00    +0.292 HD
ENDBRANCH  10  21
TORSDOF 3
ENDMDL
MODEL 7
REMARK VINA RESULT:    -8.701      1.980      3.458
REMARK INTER + INTRA:         -10.276
REMARK INTER:                  -9.703
REMARK INTRA:                  -0.573
REMARK UNBOUND:                -0.303
REMARK  Name = ZINC000000338222
REMARK  5 active torsions:
REMARK  status: ('A' for Active; 'I' for Inactive)
REMARK    1  A    between atoms: C_1  and  O_2
REMARK    2  A    between atoms: O_2  and  C_3
REMARK    3  A    between atoms: C_7  and  C_8
REMARK    4  A    between atoms: C_18  and  O_19
REMARK    5  A    between atoms: C_20  and  C_21
REMARK                            x       y       z     vdW  Elec       q    Type
REMARK                         _______ _______ _______ _____ _____    ______ ____
ROOT
ATOM      1  C   UNL     1       3.915   5.272 -22.882  0.00  0.00    +0.130 A 
ATOM      2  C   UNL     1       2.620   5.372 -22.869  0.00  0.00    +0.093 A 
ATOM      3  C   UNL     1       1.888   4.379 -23.281  0.00  0.00    +0.146 A 
ATOM      4  O   UNL     1       0.591   4.479 -23.269  0.00  0.00    -0.454 OA
ATOM      5  C   UNL     1      -0.140   3.487 -23.682  0.00  0.00    +0.139 A 
ATOM      6  C   UNL     1       0.424   2.395 -24.106  0.00  0.00    +0.098 A 
ATOM      7  C   UNL     1       1.719   2.295 -24.118  0.00  0.00    +0.197 A 
ATOM      8  O   UNL     1       2.284   1.204 -24.542  0.00  0.00    -0.287 OA
ATOM      9  C   UNL     1       2.452   3.288 -23.706  0.00  0.00    +0.106 A 
ATOM     10  C   UNL     1       3.748   3.188 -23.718  0.00  0.00    +0.138 A 
ATOM     11  C   UNL     1       4.479   4.180 -23.306  0.00  0.00    +0.033 A 
ATOM     12  C   UNL     1       5.776   4.081 -23.318  0.00  0.00    +0.051 C 
ENDROOT
BRANCH   5  13
ATOM     13  C   UNL     1      -1.437   3.587 -23.669  0.00  0.00    +0.017 A 
ATOM     14  C   UNL     1      -2.063   4.043 -24.714  0.00  0.00    +0.011 A 
ATOM     15  C   UNL     1      -3.359   4.144 -24.702  0.00  0.00    +0.001 A 
ATOM     16  C   UNL     1      -4.029   3.789 -23.646  0.00  0.00    +0.000 A 
ATOM     17  C   UNL     1      -3.403   3.333 -22.602  0.00  0.00    +0.001 A 
ATOM     18  C   UNL     1      -2.107   3.232 -22.613  0.00  0.00    +0.011 A 
ENDBRANCH   5  13
BRANCH   1  20
ATOM     19  C   UNL     1       4.084   7.356 -22.046  0.00  0.00    +0.277 C 
ATOM     20  O   UNL     1       4.648   6.264 -22.469  0.00  0.00    -0.495 OA
ENDBRANCH   1  20
BRANCH  10  21
ATOM     21  O   UNL     1       4.312   2.097 -24.142  0.00  0.00    -0.506 OA
ATOM     22  H   UNL     1       5.243   2.004 -24.101  0.00  0.00    +0.292 HD
ENDBRANCH  10  21
TORSDOF 3
ENDMDL
MODEL 8
REMARK VINA RESULT:    -8.045      1.830      1.995
REMARK INTER + INTRA:          -9.524
REMARK INTER:                  -9.515
REMARK INTRA:                  -0.008
REMARK UNBOUND:                -0.303
REMARK  Name = ZINC000000338222
REMARK  5 active torsions:
REMARK  status: ('A' for Active; 'I' for Inactive)
REMARK    1  A    between atoms: C_1  and  O_2
REMARK    2  A    between atoms: O_2  and  C_3
REMARK    3  A    between atoms: C_7  and  C_8
REMARK    4  A    between atoms: C_18  and  O_19
REMARK    5  A    between atoms: C_20  and  C_21
REMARK                            x       y       z     vdW  Elec       q    Type
REMARK                         _______ _______ _______ _____ _____    ______ ____
ROOT
ATOM      1  C   UNL     1       2.953   1.496 -22.362  0.00  0.00    +0.130 A 
ATOM      2  C   UNL     1       1.705   1.498 -22.725  0.00  0.00    +0.093 A 
ATOM      3  C   UNL     1       1.153   2.595 -23.149  0.00  0.00    +0.146 A 
ATOM      4  O   UNL     1      -0.096   2.597 -23.511  0.00  0.00    -0.454 OA
ATOM      5  C   UNL     1      -0.648   3.695 -23.935  0.00  0.00    +0.139 A 
ATOM      6  C   UNL     1       0.048   4.791 -23.997  0.00  0.00    +0.098 A 
ATOM      7  C   UNL     1       1.296   4.789 -23.635  0.00  0.00    +0.197 A 
ATOM      8  O   UNL     1       1.993   5.885 -23.697  0.00  0.00    -0.287 OA
ATOM      9  C   UNL     1       1.849   3.691 -23.211  0.00  0.00    +0.106 A 
ATOM     10  C   UNL     1       3.097   3.690 -22.848  0.00  0.00    +0.138 A 
ATOM     11  C   UNL     1       3.649   2.592 -22.424  0.00  0.00    +0.033 A 
ATOM     12  C   UNL     1       4.898   2.590 -22.062  0.00  0.00    +0.051 C 
ENDROOT
BRANCH   5  13
ATOM     13  C   UNL     1      -1.897   3.696 -24.298  0.00  0.00    +0.017 A 
ATOM     14  C   UNL     1      -2.542   4.820 -24.402  0.00  0.00    +0.011 A 
ATOM     15  C   UNL     1      -3.790   4.821 -24.764  0.00  0.00    +0.001 A 
ATOM     16  C   UNL     1      -4.394   3.699 -25.022  0.00  0.00    +0.000 A 
ATOM     17  C   UNL     1      -3.749   2.575 -24.917  0.00  0.00    +0.001 A 
ATOM     18  C   UNL     1      -2.500   2.573 -24.555  0.00  0.00    +0.011 A 
ENDBRANCH   5  13
BRANCH   1  20
ATOM     19  C   UNL     1       3.707   0.221 -20.666  0.00  0.00    +0.277 C 
ATOM     20  O   UNL     1       3.506   0.398 -21.938  0.00  0.00    -0.495 OA
ENDBRANCH   1  20
BRANCH  10  21
ATOM     21  O   UNL     1       3.794   4.786 -22.910  0.00  0.00    -0.506 OA
ATOM     22  H   UNL     1       3.670   5.380 -23.624  0.00  0.00    +0.292 HD
ENDBRANCH  10  21
TORSDOF 3
ENDMDL
MODEL 9
REMARK VINA RESULT:    -7.640      1.636      6.679
REMARK INTER + INTRA:          -9.059
REMARK INTER:                  -8.756
REMARK INTRA:                  -0.303
REMARK UNBOUND:                -0.303
REMARK  Name = ZINC000000338222
REMARK  5 active torsions:
REMARK  status: ('A' for Active; 'I' for Inactive)
REMARK    1  A    between atoms: C_1  and  O_2
REMARK    2  A    between atoms: O_2  and  C_3
REMARK    3  A    between atoms: C_7  and  C_8
REMARK    4  A    between atoms: C_18  and  O_19
REMARK    5  A    between atoms: C_20  and  C_21
REMARK                            x       y       z     vdW  Elec       q    Type
REMARK                         _______ _______ _______ _____ _____    ______ ____
ROOT
ATOM      1  C   UNL     1      -2.124   3.839 -24.042  0.00  0.00    +0.130 A 
ATOM      2  C   UNL     1      -0.830   3.908 -24.142  0.00  0.00    +0.093 A 
ATOM      3  C   UNL     1      -0.078   3.243 -23.316  0.00  0.00    +0.146 A 
ATOM      4  O   UNL     1       1.217   3.311 -23.416  0.00  0.00    -0.454 OA
ATOM      5  C   UNL     1       1.968   2.646 -22.590  0.00  0.00    +0.139 A 
ATOM      6  C   UNL     1       1.426   1.911 -21.665  0.00  0.00    +0.098 A 
ATOM      7  C   UNL     1       0.132   1.842 -21.565  0.00  0.00    +0.197 A 
ATOM      8  O   UNL     1      -0.411   1.108 -20.640  0.00  0.00    -0.287 OA
ATOM      9  C   UNL     1      -0.621   2.508 -22.391  0.00  0.00    +0.106 A 
ATOM     10  C   UNL     1      -1.915   2.439 -22.291  0.00  0.00    +0.138 A 
ATOM     11  C   UNL     1      -2.666   3.105 -23.117  0.00  0.00    +0.033 A 
ATOM     12  C   UNL     1      -3.961   3.036 -23.017  0.00  0.00    +0.051 C 
ENDROOT
BRANCH   5  13
ATOM     13  C   UNL     1       3.263   2.715 -22.691  0.00  0.00    +0.017 A 
ATOM     14  C   UNL     1       3.806   3.558 -23.520  0.00  0.00    +0.011 A 
ATOM     15  C   UNL     1       5.099   3.628 -23.621  0.00  0.00    +0.001 A 
ATOM     16  C   UNL     1       5.851   2.856 -22.894  0.00  0.00    +0.000 A 
ATOM     17  C   UNL     1       5.309   2.014 -22.065  0.00  0.00    +0.001 A 
ATOM     18  C   UNL     1       4.014   1.944 -21.963  0.00  0.00    +0.011 A 
ENDBRANCH   5  13
BRANCH   1  20
ATOM     19  C   UNL     1      -3.187   3.993 -26.021  0.00  0.00    +0.277 C 
ATOM     20  O   UNL     1      -2.876   4.505 -24.868  0.00  0.00    -0.495 OA
ENDBRANCH   1  20
BRANCH  10  21
ATOM     21  O   UNL     1      -2.457   1.704 -21.366  0.00  0.00    -0.506 OA
ATOM     22  H   UNL     1      -2.336   0.775 -21.375  0.00  0.00    +0.292 HD
ENDBRANCH  10  21
TORSDOF 3
ENDMDL
