MODEL 1
REMARK VINA RESULT:   -11.358      0.000      0.000
REMARK INTER + INTRA:         -12.022
REMARK INTER:                 -12.022
REMARK INTRA:                   0.000
REMARK UNBOUND:                 0.000
REMARK  Name = ZINC000013651795
REMARK  3 active torsions:
REMARK  status: ('A' for Active; 'I' for Inactive)
REMARK    1  A    between atoms: C_1  and  C_2
REMARK    2  A    between atoms: C_9  and  O_10
REMARK    3  A    between atoms: C_20  and  O_21
REMARK                            x       y       z     vdW  Elec       q    Type
REMARK                         _______ _______ _______ _____ _____    ______ ____
ROOT
ATOM      1  C   UNL     1      -4.524   3.832 -23.854  0.00  0.00    +0.014 C 
ATOM      2  C   UNL     1      -3.680   3.262 -23.045  0.00  0.00    -0.003 C 
ATOM      3  C   UNL     1      -3.167   3.604 -24.190  0.00  0.00    +0.010 C 
ATOM      4  C   UNL     1      -1.913   3.367 -24.438  0.00  0.00    +0.009 C 
ATOM      5  C   UNL     1      -1.172   2.787 -23.541  0.00  0.00    +0.023 C 
ATOM      6  C   UNL     1       0.082   2.549 -23.788  0.00  0.00    -0.040 A 
ATOM      7  C   UNL     1       0.594   2.892 -24.932  0.00  0.00    +0.008 A 
ATOM      8  C   UNL     1       1.849   2.654 -25.180  0.00  0.00    +0.047 A 
ATOM      9  C   UNL     1       2.589   2.074 -24.283  0.00  0.00    +0.131 A 
ATOM     10  C   UNL     1       2.076   1.732 -23.139  0.00  0.00    +0.063 A 
ATOM     11 BR   UNL     1       2.818   1.152 -22.242  0.00  0.00    -0.046 Br
ATOM     12  C   UNL     1       0.823   1.969 -22.891  0.00  0.00    -0.026 A 
ATOM     13  C   UNL     1       0.310   1.627 -21.746  0.00  0.00    +0.037 C 
ATOM     14  C   UNL     1      -0.944   1.865 -21.499  0.00  0.00    +0.009 C 
ATOM     15  C   UNL     1      -1.685   2.445 -22.396  0.00  0.00    +0.000 C 
ATOM     16  C   UNL     1      -4.879   3.384 -22.558  0.00  0.00    +0.121 C 
ATOM     17  C   UNL     1      -4.879   2.879 -21.360  0.00  0.00    +0.032 C 
ATOM     18  C   UNL     1      -3.680   2.446 -21.107  0.00  0.00    +0.007 C 
ATOM     19  C   UNL     1      -2.939   2.682 -22.148  0.00  0.00    +0.001 C 
ENDROOT
BRANCH   9  20
ATOM     20  O   UNL     1       3.844   1.836 -24.530  0.00  0.00    -0.506 OA
ATOM     21  H   UNL     1       4.131   0.960 -24.692  0.00  0.00    +0.292 HD
ENDBRANCH   9  20
BRANCH  16  22
ATOM     22  O   UNL     1      -5.899   3.916 -23.163  0.00  0.00    -0.391 OA
ATOM     23  H   UNL     1      -6.593   4.115 -22.514  0.00  0.00    +0.210 HD
ENDBRANCH  16  22
TORSDOF 2
ENDMDL
MODEL 2
REMARK VINA RESULT:   -11.230      1.088      2.471
REMARK INTER + INTRA:         -11.886
REMARK INTER:                 -11.886
REMARK INTRA:                   0.000
REMARK UNBOUND:                 0.000
REMARK  Name = ZINC000013651795
REMARK  3 active torsions:
REMARK  status: ('A' for Active; 'I' for Inactive)
REMARK    1  A    between atoms: C_1  and  C_2
REMARK    2  A    between atoms: C_9  and  O_10
REMARK    3  A    between atoms: C_20  and  O_21
REMARK                            x       y       z     vdW  Elec       q    Type
REMARK                         _______ _______ _______ _____ _____    ______ ____
ROOT
ATOM      1  C   UNL     1      -4.904   3.118 -21.952  0.00  0.00    +0.014 C 
ATOM      2  C   UNL     1      -3.979   3.294 -22.851  0.00  0.00    -0.003 C 
ATOM      3  C   UNL     1      -3.556   2.724 -21.760  0.00  0.00    +0.010 C 
ATOM      4  C   UNL     1      -2.306   2.387 -21.647  0.00  0.00    +0.009 C 
ATOM      5  C   UNL     1      -1.479   2.619 -22.623  0.00  0.00    +0.023 C 
ATOM      6  C   UNL     1      -0.228   2.282 -22.509  0.00  0.00    -0.040 A 
ATOM      7  C   UNL     1       0.194   1.712 -21.419  0.00  0.00    +0.008 A 
ATOM      8  C   UNL     1       1.445   1.375 -21.306  0.00  0.00    +0.047 A 
ATOM      9  C   UNL     1       2.272   1.607 -22.282  0.00  0.00    +0.131 A 
ATOM     10  C   UNL     1       1.849   2.176 -23.371  0.00  0.00    +0.063 A 
ATOM     11 BR   UNL     1       2.676   2.408 -24.346  0.00  0.00    -0.046 Br
ATOM     12  C   UNL     1       0.599   2.513 -23.485  0.00  0.00    -0.026 A 
ATOM     13  C   UNL     1       0.175   3.083 -24.574  0.00  0.00    +0.037 C 
ATOM     14  C   UNL     1      -1.075   3.420 -24.688  0.00  0.00    +0.009 C 
ATOM     15  C   UNL     1      -1.902   3.188 -23.712  0.00  0.00    +0.000 C 
ATOM     16  C   UNL     1      -5.154   3.720 -23.209  0.00  0.00    +0.121 C 
ATOM     17  C   UNL     1      -5.052   4.215 -24.407  0.00  0.00    +0.032 C 
ATOM     18  C   UNL     1      -3.815   4.095 -24.788  0.00  0.00    +0.007 C 
ATOM     19  C   UNL     1      -3.152   3.526 -23.826  0.00  0.00    +0.001 C 
ENDROOT
BRANCH   9  20
ATOM     20  O   UNL     1       3.523   1.269 -22.168  0.00  0.00    -0.506 OA
ATOM     21  H   UNL     1       4.085   1.747 -21.591  0.00  0.00    +0.292 HD
ENDBRANCH   9  20
BRANCH  16  22
ATOM     22  O   UNL     1      -6.239   3.661 -22.496  0.00  0.00    -0.391 OA
ATOM     23  H   UNL     1      -6.046   3.945 -21.589  0.00  0.00    +0.210 HD
ENDBRANCH  16  22
TORSDOF 2
ENDMDL
MODEL 3
REMARK VINA RESULT:   -11.124      2.041      6.285
REMARK INTER + INTRA:         -11.774
REMARK INTER:                 -11.774
REMARK INTRA:                   0.000
REMARK UNBOUND:                 0.000
REMARK  Name = ZINC000013651795
REMARK  3 active torsions:
REMARK  status: ('A' for Active; 'I' for Inactive)
REMARK    1  A    between atoms: C_1  and  C_2
REMARK    2  A    between atoms: C_9  and  O_10
REMARK    3  A    between atoms: C_20  and  O_21
REMARK                            x       y       z     vdW  Elec       q    Type
REMARK                         _______ _______ _______ _____ _____    ______ ____
ROOT
ATOM      1  C   UNL     1       2.081   1.274 -21.752  0.00  0.00    +0.014 C 
ATOM      2  C   UNL     1       1.380   1.855 -22.681  0.00  0.00    -0.003 C 
ATOM      3  C   UNL     1       0.700   1.558 -21.613  0.00  0.00    +0.010 C 
ATOM      4  C   UNL     1      -0.566   1.847 -21.548  0.00  0.00    +0.009 C 
ATOM      5  C   UNL     1      -1.152   2.431 -22.551  0.00  0.00    +0.023 C 
ATOM      6  C   UNL     1      -2.418   2.720 -22.487  0.00  0.00    -0.040 A 
ATOM      7  C   UNL     1      -3.097   2.424 -21.419  0.00  0.00    +0.008 A 
ATOM      8  C   UNL     1      -4.364   2.712 -21.354  0.00  0.00    +0.047 A 
ATOM      9  C   UNL     1      -4.949   3.296 -22.357  0.00  0.00    +0.131 A 
ATOM     10  C   UNL     1      -4.269   3.592 -23.424  0.00  0.00    +0.063 A 
ATOM     11 BR   UNL     1      -4.855   4.177 -24.427  0.00  0.00    -0.046 Br
ATOM     12  C   UNL     1      -3.004   3.304 -23.490  0.00  0.00    -0.026 A 
ATOM     13  C   UNL     1      -2.323   3.600 -24.557  0.00  0.00    +0.037 C 
ATOM     14  C   UNL     1      -1.057   3.311 -24.622  0.00  0.00    +0.009 C 
ATOM     15  C   UNL     1      -0.471   2.727 -23.619  0.00  0.00    +0.000 C 
ATOM     16  C   UNL     1       2.630   1.678 -22.993  0.00  0.00    +0.121 C 
ATOM     17  C   UNL     1       2.817   2.153 -24.188  0.00  0.00    +0.032 C 
ATOM     18  C   UNL     1       1.682   2.623 -24.615  0.00  0.00    +0.007 C 
ATOM     19  C   UNL     1       0.794   2.439 -23.684  0.00  0.00    +0.001 C 
ENDROOT
BRANCH   9  20
ATOM     20  O   UNL     1      -6.216   3.585 -22.292  0.00  0.00    -0.506 OA
ATOM     21  H   UNL     1      -6.733   3.264 -21.580  0.00  0.00    +0.292 HD
ENDBRANCH   9  20
BRANCH  16  22
ATOM     22  O   UNL     1       3.534   1.124 -22.241  0.00  0.00    -0.391 OA
ATOM     23  H   UNL     1       4.401   1.514 -22.436  0.00  0.00    +0.210 HD
ENDBRANCH  16  22
TORSDOF 2
ENDMDL
MODEL 4
REMARK VINA RESULT:   -10.724      1.851      5.849
REMARK INTER + INTRA:         -11.351
REMARK INTER:                 -11.351
REMARK INTRA:                   0.000
REMARK UNBOUND:                 0.000
REMARK  Name = ZINC000013651795
REMARK  3 active torsions:
REMARK  status: ('A' for Active; 'I' for Inactive)
REMARK    1  A    between atoms: C_1  and  C_2
REMARK    2  A    between atoms: C_9  and  O_10
REMARK    3  A    between atoms: C_20  and  O_21
REMARK                            x       y       z     vdW  Elec       q    Type
REMARK                         _______ _______ _______ _____ _____    ______ ____
ROOT
ATOM      1  C   UNL     1       2.822   2.270 -24.490  0.00  0.00    +0.014 C 
ATOM      2  C   UNL     1       1.961   2.098 -23.530  0.00  0.00    -0.003 C 
ATOM      3  C   UNL     1       1.463   2.659 -24.593  0.00  0.00    +0.010 C 
ATOM      4  C   UNL     1       0.207   2.992 -24.623  0.00  0.00    +0.009 C 
ATOM      5  C   UNL     1      -0.551   2.764 -23.592  0.00  0.00    +0.023 C 
ATOM      6  C   UNL     1      -1.808   3.097 -23.622  0.00  0.00    -0.040 A 
ATOM      7  C   UNL     1      -2.305   3.658 -24.684  0.00  0.00    +0.008 A 
ATOM      8  C   UNL     1      -3.562   3.991 -24.715  0.00  0.00    +0.047 A 
ATOM      9  C   UNL     1      -4.319   3.763 -23.683  0.00  0.00    +0.131 A 
ATOM     10  C   UNL     1      -3.821   3.202 -22.622  0.00  0.00    +0.063 A 
ATOM     11 BR   UNL     1      -4.579   2.975 -21.590  0.00  0.00    -0.046 Br
ATOM     12  C   UNL     1      -2.566   2.869 -22.591  0.00  0.00    -0.026 A 
ATOM     13  C   UNL     1      -2.067   2.309 -21.529  0.00  0.00    +0.037 C 
ATOM     14  C   UNL     1      -0.811   1.976 -21.498  0.00  0.00    +0.009 C 
ATOM     15  C   UNL     1      -0.052   2.203 -22.530  0.00  0.00    +0.000 C 
ATOM     16  C   UNL     1       3.159   1.678 -23.249  0.00  0.00    +0.121 C 
ATOM     17  C   UNL     1       3.141   1.190 -22.044  0.00  0.00    +0.032 C 
ATOM     18  C   UNL     1       1.932   1.310 -21.581  0.00  0.00    +0.007 C 
ATOM     19  C   UNL     1       1.203   1.870 -22.499  0.00  0.00    +0.001 C 
ENDROOT
BRANCH   9  20
ATOM     20  O   UNL     1      -5.576   4.096 -23.714  0.00  0.00    -0.506 OA
ATOM     21  H   UNL     1      -5.823   4.998 -23.659  0.00  0.00    +0.292 HD
ENDBRANCH   9  20
BRANCH  16  22
ATOM     22  O   UNL     1       4.193   1.735 -24.035  0.00  0.00    -0.391 OA
ATOM     23  H   UNL     1       4.088   2.473 -24.656  0.00  0.00    +0.210 HD
ENDBRANCH  16  22
TORSDOF 2
ENDMDL
MODEL 5
REMARK VINA RESULT:   -10.012      1.854      3.280
REMARK INTER + INTRA:         -10.598
REMARK INTER:                 -10.598
REMARK INTRA:                   0.000
REMARK UNBOUND:                 0.000
REMARK  Name = ZINC000013651795
REMARK  3 active torsions:
REMARK  status: ('A' for Active; 'I' for Inactive)
REMARK    1  A    between atoms: C_1  and  C_2
REMARK    2  A    between atoms: C_9  and  O_10
REMARK    3  A    between atoms: C_20  and  O_21
REMARK                            x       y       z     vdW  Elec       q    Type
REMARK                         _______ _______ _______ _____ _____    ______ ____
ROOT
ATOM      1  C   UNL     1      -2.426   2.139 -21.748  0.00  0.00    +0.014 C 
ATOM      2  C   UNL     1      -1.488   2.807 -22.353  0.00  0.00    -0.003 C 
ATOM      3  C   UNL     1      -1.060   1.767 -21.699  0.00  0.00    +0.010 C 
ATOM      4  C   UNL     1       0.208   1.480 -21.694  0.00  0.00    +0.009 C 
ATOM      5  C   UNL     1       1.048   2.232 -22.341  0.00  0.00    +0.023 C 
ATOM      6  C   UNL     1       2.316   1.945 -22.336  0.00  0.00    -0.040 A 
ATOM      7  C   UNL     1       2.743   0.905 -21.683  0.00  0.00    +0.008 A 
ATOM      8  C   UNL     1       4.012   0.617 -21.677  0.00  0.00    +0.047 A 
ATOM      9  C   UNL     1       4.851   1.370 -22.325  0.00  0.00    +0.131 A 
ATOM     10  C   UNL     1       4.423   2.409 -22.978  0.00  0.00    +0.063 A 
ATOM     11 BR   UNL     1       5.263   3.161 -23.625  0.00  0.00    -0.046 Br
ATOM     12  C   UNL     1       3.156   2.697 -22.983  0.00  0.00    -0.026 A 
ATOM     13  C   UNL     1       2.727   3.736 -23.636  0.00  0.00    +0.037 C 
ATOM     14  C   UNL     1       1.459   4.023 -23.642  0.00  0.00    +0.009 C 
ATOM     15  C   UNL     1       0.619   3.271 -22.994  0.00  0.00    +0.000 C 
ATOM     16  C   UNL     1      -2.678   3.303 -22.514  0.00  0.00    +0.121 C 
ATOM     17  C   UNL     1      -2.575   4.362 -23.261  0.00  0.00    +0.032 C 
ATOM     18  C   UNL     1      -1.320   4.519 -23.561  0.00  0.00    +0.007 C 
ATOM     19  C   UNL     1      -0.648   3.559 -23.000  0.00  0.00    +0.001 C 
ENDROOT
BRANCH   9  20
ATOM     20  O   UNL     1       6.119   1.082 -22.319  0.00  0.00    -0.506 OA
ATOM     21  H   UNL     1       6.637   1.236 -23.084  0.00  0.00    +0.292 HD
ENDBRANCH   9  20
BRANCH  16  22
ATOM     22  O   UNL     1      -3.780   2.825 -22.016  0.00  0.00    -0.391 OA
ATOM     23  H   UNL     1      -4.225   2.276 -22.681  0.00  0.00    +0.210 HD
ENDBRANCH  16  22
TORSDOF 2
ENDMDL
MODEL 6
REMARK VINA RESULT:    -9.252      2.452      6.856
REMARK INTER + INTRA:          -9.792
REMARK INTER:                  -9.792
REMARK INTRA:                   0.000
REMARK UNBOUND:                 0.000
REMARK  Name = ZINC000013651795
REMARK  3 active torsions:
REMARK  status: ('A' for Active; 'I' for Inactive)
REMARK    1  A    between atoms: C_1  and  C_2
REMARK    2  A    between atoms: C_9  and  O_10
REMARK    3  A    between atoms: C_20  and  O_21
REMARK                            x       y       z     vdW  Elec       q    Type
REMARK                         _______ _______ _______ _____ _____    ______ ____
ROOT
ATOM      1  C   UNL     1       4.859   1.058 -21.914  0.00  0.00    +0.014 C 
ATOM      2  C   UNL     1       4.159   2.013 -22.452  0.00  0.00    -0.003 C 
ATOM      3  C   UNL     1       3.446   1.120 -21.830  0.00  0.00    +0.010 C 
ATOM      4  C   UNL     1       2.152   1.236 -21.790  0.00  0.00    +0.009 C 
ATOM      5  C   UNL     1       1.571   2.243 -22.370  0.00  0.00    +0.023 C 
ATOM      6  C   UNL     1       0.276   2.358 -22.330  0.00  0.00    -0.040 A 
ATOM      7  C   UNL     1      -0.436   1.466 -21.709  0.00  0.00    +0.008 A 
ATOM      8  C   UNL     1      -1.731   1.581 -21.668  0.00  0.00    +0.047 A 
ATOM      9  C   UNL     1      -2.311   2.588 -22.249  0.00  0.00    +0.131 A 
ATOM     10  C   UNL     1      -1.599   3.480 -22.870  0.00  0.00    +0.063 A 
ATOM     11 BR   UNL     1      -2.180   4.487 -23.451  0.00  0.00    -0.046 Br
ATOM     12  C   UNL     1      -0.305   3.365 -22.911  0.00  0.00    -0.026 A 
ATOM     13  C   UNL     1       0.408   4.257 -23.532  0.00  0.00    +0.037 C 
ATOM     14  C   UNL     1       1.702   4.142 -23.573  0.00  0.00    +0.009 C 
ATOM     15  C   UNL     1       2.284   3.135 -22.992  0.00  0.00    +0.000 C 
ATOM     16  C   UNL     1       5.441   2.128 -22.635  0.00  0.00    +0.121 C 
ATOM     17  C   UNL     1       5.652   3.207 -23.330  0.00  0.00    +0.032 C 
ATOM     18  C   UNL     1       4.500   3.758 -23.575  0.00  0.00    +0.007 C 
ATOM     19  C   UNL     1       3.578   3.020 -23.032  0.00  0.00    +0.001 C 
ENDROOT
BRANCH   9  20
ATOM     20  O   UNL     1      -3.606   2.703 -22.209  0.00  0.00    -0.506 OA
ATOM     21  H   UNL     1      -4.080   2.396 -21.461  0.00  0.00    +0.292 HD
ENDBRANCH   9  20
BRANCH  16  22
ATOM     22  O   UNL     1       6.352   1.309 -22.201  0.00  0.00    -0.391 OA
ATOM     23  H   UNL     1       6.881   1.747 -21.515  0.00  0.00    +0.210 HD
ENDBRANCH  16  22
TORSDOF 2
ENDMDL
MODEL 7
REMARK VINA RESULT:    -9.024      2.419      6.468
REMARK INTER + INTRA:          -9.551
REMARK INTER:                  -9.551
REMARK INTRA:                   0.000
REMARK UNBOUND:                 0.000
REMARK  Name = ZINC000013651795
REMARK  3 active torsions:
REMARK  status: ('A' for Active; 'I' for Inactive)
REMARK    1  A    between atoms: C_1  and  C_2
REMARK    2  A    between atoms: C_9  and  O_10
REMARK    3  A    between atoms: C_20  and  O_21
REMARK                            x       y       z     vdW  Elec       q    Type
REMARK                         _______ _______ _______ _____ _____    ______ ____
ROOT
ATOM      1  C   UNL     1       5.090   3.577 -23.273  0.00  0.00    +0.014 C 
ATOM      2  C   UNL     1       4.158   2.883 -22.688  0.00  0.00    -0.003 C 
ATOM      3  C   UNL     1       3.710   3.864 -23.416  0.00  0.00    +0.010 C 
ATOM      4  C   UNL     1       2.430   4.074 -23.505  0.00  0.00    +0.009 C 
ATOM      5  C   UNL     1       1.599   3.304 -22.868  0.00  0.00    +0.023 C 
ATOM      6  C   UNL     1       0.319   3.514 -22.957  0.00  0.00    -0.040 A 
ATOM      7  C   UNL     1      -0.129   4.494 -23.685  0.00  0.00    +0.008 A 
ATOM      8  C   UNL     1      -1.409   4.705 -23.774  0.00  0.00    +0.047 A 
ATOM      9  C   UNL     1      -2.240   3.935 -23.137  0.00  0.00    +0.131 A 
ATOM     10  C   UNL     1      -1.792   2.955 -22.410  0.00  0.00    +0.063 A 
ATOM     11 BR   UNL     1      -2.623   2.186 -21.772  0.00  0.00    -0.046 Br
ATOM     12  C   UNL     1      -0.513   2.745 -22.320  0.00  0.00    -0.026 A 
ATOM     13  C   UNL     1      -0.064   1.765 -21.592  0.00  0.00    +0.037 C 
ATOM     14  C   UNL     1       1.216   1.555 -21.503  0.00  0.00    +0.009 C 
ATOM     15  C   UNL     1       2.047   2.324 -22.141  0.00  0.00    +0.000 C 
ATOM     16  C   UNL     1       5.364   2.468 -22.437  0.00  0.00    +0.121 C 
ATOM     17  C   UNL     1       5.278   1.441 -21.644  0.00  0.00    +0.032 C 
ATOM     18  C   UNL     1       4.019   1.223 -21.406  0.00  0.00    +0.007 C 
ATOM     19  C   UNL     1       3.327   2.114 -22.051  0.00  0.00    +0.001 C 
ENDROOT
BRANCH   9  20
ATOM     20  O   UNL     1      -3.520   4.145 -23.226  0.00  0.00    -0.506 OA
ATOM     21  H   UNL     1      -3.993   3.844 -23.977  0.00  0.00    +0.292 HD
ENDBRANCH   9  20
BRANCH  16  22
ATOM     22  O   UNL     1       6.463   2.987 -22.897  0.00  0.00    -0.391 OA
ATOM     23  H   UNL     1       6.893   3.507 -22.200  0.00  0.00    +0.210 HD
ENDBRANCH  16  22
TORSDOF 2
ENDMDL
