MODEL 1
REMARK VINA RESULT:   -10.196      0.000      0.000
REMARK INTER + INTRA:         -11.835
REMARK INTER:                 -11.594
REMARK INTRA:                  -0.241
REMARK UNBOUND:                -0.149
REMARK  Name = COC1=C[C@]23CCN(C)[C@@H](Cc4ccc(OC)c(O)c42)C3=CC1                    ZINC000100393719
REMARK  6 active torsions:
REMARK  status: ('A' for Active; 'I' for Inactive)
REMARK    1  A    between atoms: C_1  and  O_2
REMARK    2  A    between atoms: O_2  and  C_3
REMARK    3  A    between atoms: N_8  and  C_9
REMARK    4  A    between atoms: C_15  and  O_16
REMARK    5  A    between atoms: O_16  and  C_17
REMARK    6  A    between atoms: C_18  and  O_19
REMARK                            x       y       z     vdW  Elec       q    Type
REMARK                         _______ _______ _______ _____ _____    ______ ____
ROOT
ATOM      1  C   UNL     1      -4.038   3.914 -25.421  0.00  0.00    +0.098 C 
ATOM      2  C   UNL     1      -2.918   3.471 -24.936  0.00  0.00    +0.030 C 
ATOM      3  C   UNL     1      -2.830   3.179 -23.709  0.00  0.00    +0.052 C 
ATOM      4  C   UNL     1      -2.040   2.850 -23.290  0.00  0.00    +0.071 C 
ATOM      5  C   UNL     1      -2.053   2.596 -22.094  0.00  0.00    +0.133 C 
ATOM      6  N   UNL     1      -2.967   2.709 -21.343  0.00  0.00    +0.239 N 
ATOM      7  H   UNL     1      -2.029   2.377 -21.115  0.00  0.00    +0.204 HD
ATOM      8  C   UNL     1      -3.760   2.998 -21.570  0.00  0.00    +0.096 C 
ATOM      9  C   UNL     1      -2.395   2.437 -20.882  0.00  0.00    +0.094 C 
ATOM     10  C   UNL     1      -1.412   2.289 -21.572  0.00  0.00    -0.034 A 
ATOM     11  C   UNL     1      -0.306   1.852 -21.095  0.00  0.00    +0.008 A 
ATOM     12  C   UNL     1       0.722   1.710 -21.873  0.00  0.00    +0.050 A 
ATOM     13  C   UNL     1       0.640   2.007 -23.129  0.00  0.00    +0.162 A 
ATOM     14  C   UNL     1      -0.465   2.444 -23.609  0.00  0.00    +0.163 A 
ATOM     15  C   UNL     1      -4.093   2.821 -20.287  0.00  0.00    +0.191 C 
ATOM     16  C   UNL     1      -3.977   3.342 -22.862  0.00  0.00    -0.011 C 
ATOM     17  C   UNL     1      -5.052   3.777 -23.370  0.00  0.00    -0.013 C 
ATOM     18  C   UNL     1      -1.493   2.588 -22.841  0.00  0.00    +0.015 A 
ATOM     19  C   UNL     1      -5.096   4.065 -24.645  0.00  0.00    +0.100 C 
ENDROOT
BRANCH   1  21
ATOM     20  C   UNL     1      -3.238   3.528 -27.566  0.00  0.00    +0.276 C 
ATOM     21  O   UNL     1      -3.906   4.158 -26.734  0.00  0.00    -0.499 OA
ENDBRANCH   1  21
BRANCH  14  22
ATOM     22  O   UNL     1      -0.566   2.746 -24.869  0.00  0.00    -0.503 OA
ATOM     23  H   UNL     1      -1.167   3.410 -25.145  0.00  0.00    +0.292 HD
ENDBRANCH  14  22
BRANCH  13  24
ATOM     24  O   UNL     1       1.579   1.933 -24.100  0.00  0.00    -0.491 OA
ATOM     25  C   UNL     1       2.803   1.754 -23.978  0.00  0.00    +0.277 C 
ENDBRANCH  13  24
TORSDOF 3
ENDMDL
MODEL 2
REMARK VINA RESULT:    -9.932      0.601      4.451
REMARK INTER + INTRA:         -11.533
REMARK INTER:                 -11.327
REMARK INTRA:                  -0.206
REMARK UNBOUND:                -0.149
REMARK  Name = COC1=C[C@]23CCN(C)[C@@H](Cc4ccc(OC)c(O)c42)C3=CC1                    ZINC000100393719
REMARK  6 active torsions:
REMARK  status: ('A' for Active; 'I' for Inactive)
REMARK    1  A    between atoms: C_1  and  O_2
REMARK    2  A    between atoms: O_2  and  C_3
REMARK    3  A    between atoms: N_8  and  C_9
REMARK    4  A    between atoms: C_15  and  O_16
REMARK    5  A    between atoms: O_16  and  C_17
REMARK    6  A    between atoms: C_18  and  O_19
REMARK                            x       y       z     vdW  Elec       q    Type
REMARK                         _______ _______ _______ _____ _____    ______ ____
ROOT
ATOM      1  C   UNL     1       0.773   1.790 -22.878  0.00  0.00    +0.098 C 
ATOM      2  C   UNL     1      -0.191   2.259 -23.610  0.00  0.00    +0.030 C 
ATOM      3  C   UNL     1      -1.305   2.546 -23.084  0.00  0.00    +0.052 C 
ATOM      4  C   UNL     1      -2.052   2.893 -23.563  0.00  0.00    +0.071 C 
ATOM      5  C   UNL     1      -3.089   3.140 -22.965  0.00  0.00    +0.133 C 
ATOM      6  N   UNL     1      -3.303   2.999 -21.804  0.00  0.00    +0.239 N 
ATOM      7  H   UNL     1      -3.955   3.354 -22.505  0.00  0.00    +0.204 HD
ATOM      8  C   UNL     1      -2.722   2.692 -21.228  0.00  0.00    +0.096 C 
ATOM      9  C   UNL     1      -3.982   3.284 -22.073  0.00  0.00    +0.094 C 
ATOM     10  C   UNL     1      -3.855   3.460 -23.264  0.00  0.00    -0.034 A 
ATOM     11  C   UNL     1      -4.805   3.922 -23.988  0.00  0.00    +0.008 A 
ATOM     12  C   UNL     1      -4.622   4.095 -25.261  0.00  0.00    +0.050 A 
ATOM     13  C   UNL     1      -3.487   3.803 -25.806  0.00  0.00    +0.162 A 
ATOM     14  C   UNL     1      -2.534   3.341 -25.084  0.00  0.00    +0.163 A 
ATOM     15  C   UNL     1      -3.681   2.854 -20.311  0.00  0.00    +0.191 C 
ATOM     16  C   UNL     1      -1.490   2.349 -21.674  0.00  0.00    -0.011 C 
ATOM     17  C   UNL     1      -0.527   1.890 -20.992  0.00  0.00    -0.013 C 
ATOM     18  C   UNL     1      -2.708   3.166 -23.817  0.00  0.00    +0.015 A 
ATOM     19  C   UNL     1       0.607   1.607 -21.580  0.00  0.00    +0.100 C 
ENDROOT
BRANCH   1  21
ATOM     20  C   UNL     1       2.184   2.115 -24.693  0.00  0.00    +0.276 C 
ATOM     21  O   UNL     1       1.855   1.557 -23.637  0.00  0.00    -0.499 OA
ENDBRANCH   1  21
BRANCH  14  22
ATOM     22  O   UNL     1      -1.386   3.043 -25.615  0.00  0.00    -0.503 OA
ATOM     23  H   UNL     1      -0.625   3.545 -25.400  0.00  0.00    +0.292 HD
ENDBRANCH  14  22
BRANCH  13  24
ATOM     24  O   UNL     1      -3.093   3.906 -27.097  0.00  0.00    -0.491 OA
ATOM     25  C   UNL     1      -3.635   3.431 -28.109  0.00  0.00    +0.277 C 
ENDBRANCH  13  24
TORSDOF 3
ENDMDL
MODEL 3
REMARK VINA RESULT:    -9.216      2.679      4.624
REMARK INTER + INTRA:         -10.712
REMARK INTER:                 -10.531
REMARK INTRA:                  -0.181
REMARK UNBOUND:                -0.149
REMARK  Name = COC1=C[C@]23CCN(C)[C@@H](Cc4ccc(OC)c(O)c42)C3=CC1                    ZINC000100393719
REMARK  6 active torsions:
REMARK  status: ('A' for Active; 'I' for Inactive)
REMARK    1  A    between atoms: C_1  and  O_2
REMARK    2  A    between atoms: O_2  and  C_3
REMARK    3  A    between atoms: N_8  and  C_9
REMARK    4  A    between atoms: C_15  and  O_16
REMARK    5  A    between atoms: O_16  and  C_17
REMARK    6  A    between atoms: C_18  and  O_19
REMARK                            x       y       z     vdW  Elec       q    Type
REMARK                         _______ _______ _______ _____ _____    ______ ____
ROOT
ATOM      1  C   UNL     1      -1.936   3.180 -21.781  0.00  0.00    +0.098 C 
ATOM      2  C   UNL     1      -0.768   2.617 -21.834  0.00  0.00    +0.030 C 
ATOM      3  C   UNL     1      -0.033   2.778 -22.850  0.00  0.00    +0.052 C 
ATOM      4  C   UNL     1       0.834   2.394 -22.953  0.00  0.00    +0.071 C 
ATOM      5  C   UNL     1       1.470   2.608 -23.975  0.00  0.00    +0.133 C 
ATOM      6  N   UNL     1       1.137   3.266 -24.907  0.00  0.00    +0.239 N 
ATOM      7  H   UNL     1       2.019   2.763 -24.800  0.00  0.00    +0.204 HD
ATOM      8  C   UNL     1       0.373   3.685 -24.968  0.00  0.00    +0.096 C 
ATOM      9  C   UNL     1       1.850   3.015 -25.116  0.00  0.00    +0.094 C 
ATOM     10  C   UNL     1       2.272   2.328 -24.213  0.00  0.00    -0.034 A 
ATOM     11  C   UNL     1       3.424   1.771 -24.264  0.00  0.00    +0.008 A 
ATOM     12  C   UNL     1       3.834   1.043 -23.273  0.00  0.00    +0.050 A 
ATOM     13  C   UNL     1       3.088   0.873 -22.230  0.00  0.00    +0.162 A 
ATOM     14  C   UNL     1       1.935   1.429 -22.177  0.00  0.00    +0.163 A 
ATOM     15  C   UNL     1       0.799   4.098 -26.167  0.00  0.00    +0.191 C 
ATOM     16  C   UNL     1      -0.502   3.587 -23.939  0.00  0.00    -0.011 C 
ATOM     17  C   UNL     1      -1.647   4.121 -23.852  0.00  0.00    -0.013 C 
ATOM     18  C   UNL     1       1.519   2.155 -23.159  0.00  0.00    +0.015 A 
ATOM     19  C   UNL     1      -2.372   3.926 -22.780  0.00  0.00    +0.100 C 
ENDROOT
BRANCH   1  21
ATOM     20  C   UNL     1      -3.307   3.583 -19.951  0.00  0.00    +0.276 C 
ATOM     21  O   UNL     1      -2.540   2.877 -20.622  0.00  0.00    -0.499 OA
ENDBRANCH   1  21
BRANCH  14  22
ATOM     22  O   UNL     1       1.171   1.269 -21.137  0.00  0.00    -0.503 OA
ATOM     23  H   UNL     1       1.214   1.879 -20.426  0.00  0.00    +0.292 HD
ENDBRANCH  14  22
BRANCH  13  24
ATOM     24  O   UNL     1       3.322   0.163 -21.102  0.00  0.00    -0.491 OA
ATOM     25  C   UNL     1       4.398   0.003 -20.501  0.00  0.00    +0.277 C 
ENDBRANCH  13  24
TORSDOF 3
ENDMDL
MODEL 4
REMARK VINA RESULT:    -9.095      2.381      6.029
REMARK INTER + INTRA:         -10.574
REMARK INTER:                 -10.387
REMARK INTRA:                  -0.187
REMARK UNBOUND:                -0.149
REMARK  Name = COC1=C[C@]23CCN(C)[C@@H](Cc4ccc(OC)c(O)c42)C3=CC1                    ZINC000100393719
REMARK  6 active torsions:
REMARK  status: ('A' for Active; 'I' for Inactive)
REMARK    1  A    between atoms: C_1  and  O_2
REMARK    2  A    between atoms: O_2  and  C_3
REMARK    3  A    between atoms: N_8  and  C_9
REMARK    4  A    between atoms: C_15  and  O_16
REMARK    5  A    between atoms: O_16  and  C_17
REMARK    6  A    between atoms: C_18  and  O_19
REMARK                            x       y       z     vdW  Elec       q    Type
REMARK                         _______ _______ _______ _____ _____    ______ ____
ROOT
ATOM      1  C   UNL     1       2.770   1.222 -22.022  0.00  0.00    +0.098 C 
ATOM      2  C   UNL     1       1.501   1.493 -22.020  0.00  0.00    +0.030 C 
ATOM      3  C   UNL     1       1.001   2.195 -22.945  0.00  0.00    +0.052 C 
ATOM      4  C   UNL     1       0.078   2.430 -23.002  0.00  0.00    +0.071 C 
ATOM      5  C   UNL     1      -0.311   3.114 -23.937  0.00  0.00    +0.133 C 
ATOM      6  N   UNL     1       0.338   3.550 -24.832  0.00  0.00    +0.239 N 
ATOM      7  H   UNL     1      -0.665   3.675 -24.690  0.00  0.00    +0.204 HD
ATOM      8  C   UNL     1       1.198   3.426 -24.924  0.00  0.00    +0.096 C 
ATOM      9  C   UNL     1      -0.382   3.811 -24.996  0.00  0.00    +0.094 C 
ATOM     10  C   UNL     1      -1.121   3.410 -24.126  0.00  0.00    -0.034 A 
ATOM     11  C   UNL     1      -2.374   3.675 -24.121  0.00  0.00    +0.008 A 
ATOM     12  C   UNL     1      -3.127   3.223 -23.167  0.00  0.00    +0.050 A 
ATOM     13  C   UNL     1      -2.623   2.505 -22.217  0.00  0.00    +0.162 A 
ATOM     14  C   UNL     1      -1.369   2.237 -22.219  0.00  0.00    +0.163 A 
ATOM     15  C   UNL     1       1.094   4.162 -26.035  0.00  0.00    +0.191 C 
ATOM     16  C   UNL     1       1.848   2.687 -23.993  0.00  0.00    -0.011 C 
ATOM     17  C   UNL     1       3.081   2.403 -23.963  0.00  0.00    -0.013 C 
ATOM     18  C   UNL     1      -0.613   2.683 -23.166  0.00  0.00    +0.015 A 
ATOM     19  C   UNL     1       3.554   1.673 -22.985  0.00  0.00    +0.100 C 
ENDROOT
BRANCH   1  21
ATOM     20  C   UNL     1       4.209   0.167 -20.536  0.00  0.00    +0.276 C 
ATOM     21  O   UNL     1       3.083   0.470 -20.956  0.00  0.00    -0.499 OA
ENDBRANCH   1  21
BRANCH  14  22
ATOM     22  O   UNL     1      -0.845   1.516 -21.273  0.00  0.00    -0.503 OA
ATOM     23  H   UNL     1      -0.083   1.000 -21.445  0.00  0.00    +0.292 HD
ENDBRANCH  14  22
BRANCH  13  24
ATOM     24  O   UNL     1      -3.223   1.943 -21.143  0.00  0.00    -0.491 OA
ATOM     25  C   UNL     1      -4.367   2.149 -20.703  0.00  0.00    +0.277 C 
ENDBRANCH  13  24
TORSDOF 3
ENDMDL
MODEL 5
REMARK VINA RESULT:    -8.530      2.055      5.120
REMARK INTER + INTRA:          -9.926
REMARK INTER:                 -10.348
REMARK INTRA:                   0.422
REMARK UNBOUND:                -0.149
REMARK  Name = COC1=C[C@]23CCN(C)[C@@H](Cc4ccc(OC)c(O)c42)C3=CC1                    ZINC000100393719
REMARK  6 active torsions:
REMARK  status: ('A' for Active; 'I' for Inactive)
REMARK    1  A    between atoms: C_1  and  O_2
REMARK    2  A    between atoms: O_2  and  C_3
REMARK    3  A    between atoms: N_8  and  C_9
REMARK    4  A    between atoms: C_15  and  O_16
REMARK    5  A    between atoms: O_16  and  C_17
REMARK    6  A    between atoms: C_18  and  O_19
REMARK                            x       y       z     vdW  Elec       q    Type
REMARK                         _______ _______ _______ _____ _____    ______ ____
ROOT
ATOM      1  C   UNL     1       1.160   3.040 -23.797  0.00  0.00    +0.098 C 
ATOM      2  C   UNL     1      -0.004   3.062 -23.223  0.00  0.00    +0.030 C 
ATOM      3  C   UNL     1      -1.049   3.232 -23.914  0.00  0.00    +0.052 C 
ATOM      4  C   UNL     1      -1.932   3.259 -23.555  0.00  0.00    +0.071 C 
ATOM      5  C   UNL     1      -2.882   3.429 -24.306  0.00  0.00    +0.133 C 
ATOM      6  N   UNL     1      -2.852   3.574 -25.485  0.00  0.00    +0.239 N 
ATOM      7  H   UNL     1      -3.683   3.568 -24.893  0.00  0.00    +0.204 HD
ATOM      8  C   UNL     1      -2.122   3.575 -25.964  0.00  0.00    +0.096 C 
ATOM      9  C   UNL     1      -3.618   3.616 -25.323  0.00  0.00    +0.094 C 
ATOM     10  C   UNL     1      -3.745   3.477 -24.128  0.00  0.00    -0.034 A 
ATOM     11  C   UNL     1      -4.892   3.498 -23.559  0.00  0.00    +0.008 A 
ATOM     12  C   UNL     1      -4.979   3.345 -22.274  0.00  0.00    +0.050 A 
ATOM     13  C   UNL     1      -3.914   3.170 -21.560  0.00  0.00    +0.162 A 
ATOM     14  C   UNL     1      -2.765   3.148 -22.127  0.00  0.00    +0.163 A 
ATOM     15  C   UNL     1      -2.921   3.772 -27.018  0.00  0.00    +0.191 C 
ATOM     16  C   UNL     1      -0.935   3.401 -25.334  0.00  0.00    -0.011 C 
ATOM     17  C   UNL     1       0.216   3.374 -25.860  0.00  0.00    -0.013 C 
ATOM     18  C   UNL     1      -2.670   3.300 -23.406  0.00  0.00    +0.015 A 
ATOM     19  C   UNL     1       1.269   3.194 -25.105  0.00  0.00    +0.100 C 
ENDROOT
BRANCH   1  21
ATOM     20  C   UNL     1       2.319   1.848 -22.177  0.00  0.00    +0.276 C 
ATOM     21  O   UNL     1       2.121   2.847 -22.882  0.00  0.00    -0.499 OA
ENDBRANCH   1  21
BRANCH  14  22
ATOM     22  O   UNL     1      -1.685   2.973 -21.426  0.00  0.00    -0.503 OA
ATOM     23  H   UNL     1      -1.720   3.026 -20.491  0.00  0.00    +0.292 HD
ENDBRANCH  14  22
BRANCH  13  24
ATOM     24  O   UNL     1      -3.785   2.992 -20.225  0.00  0.00    -0.491 OA
ATOM     25  C   UNL     1      -3.317   3.778 -19.384  0.00  0.00    +0.277 C 
ENDBRANCH  13  24
TORSDOF 3
ENDMDL
MODEL 6
REMARK VINA RESULT:    -7.955      4.555      7.698
REMARK INTER + INTRA:          -9.267
REMARK INTER:                  -9.070
REMARK INTRA:                  -0.197
REMARK UNBOUND:                -0.149
REMARK  Name = COC1=C[C@]23CCN(C)[C@@H](Cc4ccc(OC)c(O)c42)C3=CC1                    ZINC000100393719
REMARK  6 active torsions:
REMARK  status: ('A' for Active; 'I' for Inactive)
REMARK    1  A    between atoms: C_1  and  O_2
REMARK    2  A    between atoms: O_2  and  C_3
REMARK    3  A    between atoms: N_8  and  C_9
REMARK    4  A    between atoms: C_15  and  O_16
REMARK    5  A    between atoms: O_16  and  C_17
REMARK    6  A    between atoms: C_18  and  O_19
REMARK                            x       y       z     vdW  Elec       q    Type
REMARK                         _______ _______ _______ _____ _____    ______ ____
ROOT
ATOM      1  C   UNL     1       4.576   7.559 -21.997  0.00  0.00    +0.098 C 
ATOM      2  C   UNL     1       3.722   6.723 -22.504  0.00  0.00    +0.030 C 
ATOM      3  C   UNL     1       4.088   5.552 -22.811  0.00  0.00    +0.052 C 
ATOM      4  C   UNL     1       3.513   4.890 -23.187  0.00  0.00    +0.071 C 
ATOM      5  C   UNL     1       3.960   3.783 -23.450  0.00  0.00    +0.133 C 
ATOM      6  N   UNL     1       5.073   3.399 -23.294  0.00  0.00    +0.239 N 
ATOM      7  H   UNL     1       4.293   2.865 -23.679  0.00  0.00    +0.204 HD
ATOM      8  C   UNL     1       5.721   3.883 -22.961  0.00  0.00    +0.096 C 
ATOM      9  C   UNL     1       4.715   2.774 -23.601  0.00  0.00    +0.094 C 
ATOM     10  C   UNL     1       3.559   3.077 -23.796  0.00  0.00    -0.034 A 
ATOM     11  C   UNL     1       2.716   2.254 -24.297  0.00  0.00    +0.008 A 
ATOM     12  C   UNL     1       1.487   2.624 -24.487  0.00  0.00    +0.050 A 
ATOM     13  C   UNL     1       1.106   3.820 -24.176  0.00  0.00    +0.162 A 
ATOM     14  C   UNL     1       1.948   4.645 -23.675  0.00  0.00    +0.163 A 
ATOM     15  C   UNL     1       6.493   2.805 -23.131  0.00  0.00    +0.191 C 
ATOM     16  C   UNL     1       5.451   5.159 -22.593  0.00  0.00    -0.011 C 
ATOM     17  C   UNL     1       6.255   6.000 -22.097  0.00  0.00    -0.013 C 
ATOM     18  C   UNL     1       3.173   4.285 -23.482  0.00  0.00    +0.015 A 
ATOM     19  C   UNL     1       5.831   7.201 -21.795  0.00  0.00    +0.100 C 
ENDROOT
BRANCH   1  21
ATOM     20  C   UNL     1       4.015   9.770 -22.427  0.00  0.00    +0.276 C 
ATOM     21  O   UNL     1       3.977   8.733 -21.749  0.00  0.00    -0.499 OA
ENDBRANCH   1  21
BRANCH  14  22
ATOM     22  O   UNL     1       1.583   5.851 -23.356  0.00  0.00    -0.503 OA
ATOM     23  H   UNL     1       1.175   6.402 -23.995  0.00  0.00    +0.292 HD
ENDBRANCH  14  22
BRANCH  13  24
ATOM     24  O   UNL     1      -0.111   4.399 -24.292  0.00  0.00    -0.491 OA
ATOM     25  C   UNL     1      -1.219   3.849 -24.415  0.00  0.00    +0.277 C 
ENDBRANCH  13  24
TORSDOF 3
ENDMDL
