MODEL 1
REMARK VINA RESULT:   -10.868      0.000      0.000
REMARK INTER + INTRA:         -10.890
REMARK INTER:                 -11.737
REMARK INTRA:                   0.847
REMARK UNBOUND:                 0.931
REMARK  Name = ZINC000001280592
REMARK  6 active torsions:
REMARK  status: ('A' for Active; 'I' for Inactive)
REMARK    1  A    between atoms: C_1  and  O_2
REMARK    2  A    between atoms: O_2  and  C_3
REMARK    3  A    between atoms: C_11  and  O_12
REMARK    4  A    between atoms: O_12  and  C_13
REMARK    5  A    between atoms: C_14  and  O_15
REMARK    6  A    between atoms: N_20  and  C_21
REMARK                            x       y       z     vdW  Elec       q    Type
REMARK                         _______ _______ _______ _____ _____    ______ ____
ROOT
ATOM      1  C   UNL     1      -2.341   3.503 -25.074  0.00  0.00    +0.159 C 
ATOM      2  C   UNL     1      -3.052   3.436 -24.428  0.00  0.00    +0.032 C 
ATOM      3  C   UNL     1      -2.884   3.111 -22.961  0.00  0.00    +0.075 C 
ATOM      4  C   UNL     1      -3.775   3.217 -23.053  0.00  0.00    +0.076 C 
ATOM      5  C   UNL     1      -3.653   3.403 -23.992  0.00  0.00    +0.090 C 
ATOM      6  C   UNL     1      -2.019   3.274 -24.133  0.00  0.00    -0.035 A 
ATOM      7  C   UNL     1      -0.843   3.397 -25.263  0.00  0.00    +0.008 A 
ATOM      8  C   UNL     1       0.323   3.217 -24.944  0.00  0.00    +0.049 A 
ATOM      9  C   UNL     1       0.603   2.938 -23.746  0.00  0.00    +0.162 A 
ATOM     10  C   UNL     1      -0.331   2.839 -22.841  0.00  0.00    +0.163 A 
ATOM     11  C   UNL     1      -1.599   3.023 -23.133  0.00  0.00    +0.009 A 
ATOM     12  N   UNL     1      -4.398   3.049 -21.966  0.00  0.00    +0.236 N 
ATOM     13  H   UNL     1      -5.413   3.142 -21.939  0.00  0.00    +0.203 HD
ATOM     14  C   UNL     1      -5.653   3.153 -21.881  0.00  0.00    +0.190 C 
ATOM     15  C   UNL     1      -3.642   2.756 -20.921  0.00  0.00    +0.132 C 
ATOM     16  C   UNL     1      -2.355   2.680 -21.155  0.00  0.00    +0.064 C 
ATOM     17  C   UNL     1      -2.034   2.897 -22.333  0.00  0.00    +0.023 C 
ATOM     18  C   UNL     1      -0.930   3.010 -23.379  0.00  0.00    +0.095 C 
ATOM     19  C   UNL     1      -1.351   3.348 -24.792  0.00  0.00    +0.198 C 
ATOM     20  O   UNL     1      -2.394   3.788 -26.404  0.00  0.00    -0.289 OA
ENDROOT
BRANCH   1  22
ATOM     21  C   UNL     1      -3.274   3.481 -27.542  0.00  0.00    +0.277 C 
ATOM     22  O   UNL     1      -3.495   3.841 -26.146  0.00  0.00    -0.492 OA
ENDBRANCH   1  22
BRANCH  10  23
ATOM     23  O   UNL     1       0.580   2.591 -22.087  0.00  0.00    -0.503 OA
ATOM     24  H   UNL     1       1.449   2.489 -22.421  0.00  0.00    +0.292 HD
ENDBRANCH  10  23
BRANCH   9  25
ATOM     25  O   UNL     1       1.807   2.726 -23.294  0.00  0.00    -0.491 OA
ATOM     26  C   UNL     1       2.843   2.788 -23.969  0.00  0.00    +0.277 C 
ENDBRANCH   9  25
TORSDOF 3
ENDMDL
MODEL 2
REMARK VINA RESULT:   -10.647      1.688      3.358
REMARK INTER + INTRA:         -10.649
REMARK INTER:                 -11.550
REMARK INTRA:                   0.901
REMARK UNBOUND:                 0.931
REMARK  Name = ZINC000001280592
REMARK  6 active torsions:
REMARK  status: ('A' for Active; 'I' for Inactive)
REMARK    1  A    between atoms: C_1  and  O_2
REMARK    2  A    between atoms: O_2  and  C_3
REMARK    3  A    between atoms: C_11  and  O_12
REMARK    4  A    between atoms: O_12  and  C_13
REMARK    5  A    between atoms: C_14  and  O_15
REMARK    6  A    between atoms: N_20  and  C_21
REMARK                            x       y       z     vdW  Elec       q    Type
REMARK                         _______ _______ _______ _____ _____    ______ ____
ROOT
ATOM      1  C   UNL     1      -2.451   2.867 -21.901  0.00  0.00    +0.159 C 
ATOM      2  C   UNL     1      -3.108   3.144 -22.548  0.00  0.00    +0.032 C 
ATOM      3  C   UNL     1      -2.882   3.262 -24.039  0.00  0.00    +0.075 C 
ATOM      4  C   UNL     1      -3.743   3.507 -23.936  0.00  0.00    +0.076 C 
ATOM      5  C   UNL     1      -3.667   3.366 -22.984  0.00  0.00    +0.090 C 
ATOM      6  C   UNL     1      -2.100   2.881 -22.859  0.00  0.00    -0.035 A 
ATOM      7  C   UNL     1      -1.018   2.414 -21.725  0.00  0.00    +0.008 A 
ATOM      8  C   UNL     1       0.118   2.115 -22.061  0.00  0.00    +0.049 A 
ATOM      9  C   UNL     1       0.441   2.170 -23.279  0.00  0.00    +0.162 A 
ATOM     10  C   UNL     1      -0.419   2.541 -24.187  0.00  0.00    +0.163 A 
ATOM     11  C   UNL     1      -1.652   2.873 -23.878  0.00  0.00    +0.009 A 
ATOM     12  N   UNL     1      -4.296   3.810 -25.032  0.00  0.00    +0.236 N 
ATOM     13  H   UNL     1      -5.271   4.104 -25.048  0.00  0.00    +0.203 HD
ATOM     14  C   UNL     1      -5.500   4.180 -25.105  0.00  0.00    +0.190 C 
ATOM     15  C   UNL     1      -3.522   3.711 -26.101  0.00  0.00    +0.132 C 
ATOM     16  C   UNL     1      -2.294   3.314 -25.877  0.00  0.00    +0.064 C 
ATOM     17  C   UNL     1      -2.036   3.088 -24.684  0.00  0.00    +0.023 C 
ATOM     18  C   UNL     1      -1.019   2.653 -23.636  0.00  0.00    +0.095 C 
ATOM     19  C   UNL     1      -1.487   2.614 -22.197  0.00  0.00    +0.198 C 
ATOM     20  O   UNL     1      -2.561   2.732 -20.551  0.00  0.00    -0.289 OA
ENDROOT
BRANCH   1  22
ATOM     21  C   UNL     1      -3.269   3.752 -19.554  0.00  0.00    +0.277 C 
ATOM     22  O   UNL     1      -3.610   3.077 -20.801  0.00  0.00    -0.492 OA
ENDBRANCH   1  22
BRANCH  10  23
ATOM     23  O   UNL     1       0.491   2.365 -24.963  0.00  0.00    -0.503 OA
ATOM     24  H   UNL     1       1.353   2.191 -24.640  0.00  0.00    +0.292 HD
ENDBRANCH  10  23
BRANCH   9  25
ATOM     25  O   UNL     1       1.620   1.875 -23.751  0.00  0.00    -0.491 OA
ATOM     26  C   UNL     1       2.578   1.475 -23.077  0.00  0.00    +0.277 C 
ENDBRANCH   9  25
TORSDOF 3
ENDMDL
MODEL 3
REMARK VINA RESULT:   -10.279      1.973      4.331
REMARK INTER + INTRA:         -10.249
REMARK INTER:                 -11.157
REMARK INTRA:                   0.908
REMARK UNBOUND:                 0.931
REMARK  Name = ZINC000001280592
REMARK  6 active torsions:
REMARK  status: ('A' for Active; 'I' for Inactive)
REMARK    1  A    between atoms: C_1  and  O_2
REMARK    2  A    between atoms: O_2  and  C_3
REMARK    3  A    between atoms: C_11  and  O_12
REMARK    4  A    between atoms: O_12  and  C_13
REMARK    5  A    between atoms: C_14  and  O_15
REMARK    6  A    between atoms: N_20  and  C_21
REMARK                            x       y       z     vdW  Elec       q    Type
REMARK                         _______ _______ _______ _____ _____    ______ ____
ROOT
ATOM      1  C   UNL     1      -2.700   2.666 -22.193  0.00  0.00    +0.159 C 
ATOM      2  C   UNL     1      -1.855   2.420 -21.801  0.00  0.00    +0.032 C 
ATOM      3  C   UNL     1      -0.531   2.351 -22.528  0.00  0.00    +0.075 C 
ATOM      4  C   UNL     1      -0.321   2.114 -21.684  0.00  0.00    +0.076 C 
ATOM      5  C   UNL     1      -1.245   2.221 -21.427  0.00  0.00    +0.090 C 
ATOM      6  C   UNL     1      -1.922   2.680 -22.854  0.00  0.00    -0.035 A 
ATOM      7  C   UNL     1      -3.377   3.091 -23.478  0.00  0.00    +0.008 A 
ATOM      8  C   UNL     1      -3.465   3.386 -24.661  0.00  0.00    +0.049 A 
ATOM      9  C   UNL     1      -2.432   3.369 -25.384  0.00  0.00    +0.162 A 
ATOM     10  C   UNL     1      -1.270   3.042 -24.891  0.00  0.00    +0.163 A 
ATOM     11  C   UNL     1      -1.122   2.717 -23.627  0.00  0.00    +0.009 A 
ATOM     12  N   UNL     1       0.909   1.858 -21.545  0.00  0.00    +0.236 N 
ATOM     13  H   UNL     1       1.272   1.577 -20.634  0.00  0.00    +0.203 HD
ATOM     14  C   UNL     1       1.407   1.507 -20.440  0.00  0.00    +0.190 C 
ATOM     15  C   UNL     1       1.640   1.983 -22.639  0.00  0.00    +0.132 C 
ATOM     16  C   UNL     1       0.991   2.354 -23.716  0.00  0.00    +0.064 C 
ATOM     17  C   UNL     1      -0.225   2.535 -23.545  0.00  0.00    +0.023 C 
ATOM     18  C   UNL     1      -1.576   2.920 -24.137  0.00  0.00    +0.095 C 
ATOM     19  C   UNL     1      -2.765   2.915 -23.201  0.00  0.00    +0.198 C 
ATOM     20  O   UNL     1      -3.933   2.755 -21.624  0.00  0.00    -0.289 OA
ENDROOT
BRANCH   1  22
ATOM     21  C   UNL     1      -4.763   2.238 -20.606  0.00  0.00    +0.277 C 
ATOM     22  O   UNL     1      -3.323   2.433 -20.726  0.00  0.00    -0.492 OA
ENDBRANCH   1  22
BRANCH  10  23
ATOM     23  O   UNL     1      -0.864   3.233 -26.013  0.00  0.00    -0.503 OA
ATOM     24  H   UNL     1      -0.852   2.529 -26.632  0.00  0.00    +0.292 HD
ENDBRANCH  10  23
BRANCH   9  25
ATOM     25  O   UNL     1      -2.409   3.664 -26.654  0.00  0.00    -0.491 OA
ATOM     26  C   UNL     1      -3.355   3.516 -27.438  0.00  0.00    +0.277 C 
ENDBRANCH   9  25
TORSDOF 3
ENDMDL
MODEL 4
REMARK VINA RESULT:   -10.221      1.968      4.111
REMARK INTER + INTRA:         -10.185
REMARK INTER:                 -11.117
REMARK INTRA:                   0.932
REMARK UNBOUND:                 0.931
REMARK  Name = ZINC000001280592
REMARK  6 active torsions:
REMARK  status: ('A' for Active; 'I' for Inactive)
REMARK    1  A    between atoms: C_1  and  O_2
REMARK    2  A    between atoms: O_2  and  C_3
REMARK    3  A    between atoms: C_11  and  O_12
REMARK    4  A    between atoms: O_12  and  C_13
REMARK    5  A    between atoms: C_14  and  O_15
REMARK    6  A    between atoms: N_20  and  C_21
REMARK                            x       y       z     vdW  Elec       q    Type
REMARK                         _______ _______ _______ _____ _____    ______ ____
ROOT
ATOM      1  C   UNL     1      -2.620   3.361 -24.726  0.00  0.00    +0.159 C 
ATOM      2  C   UNL     1      -1.728   3.104 -24.468  0.00  0.00    +0.032 C 
ATOM      3  C   UNL     1      -1.312   2.611 -23.101  0.00  0.00    +0.075 C 
ATOM      4  C   UNL     1      -0.544   2.597 -23.573  0.00  0.00    +0.076 C 
ATOM      5  C   UNL     1      -1.017   2.924 -24.347  0.00  0.00    +0.090 C 
ATOM      6  C   UNL     1      -2.546   3.055 -23.755  0.00  0.00    -0.035 A 
ATOM      7  C   UNL     1      -4.045   3.502 -24.236  0.00  0.00    +0.008 A 
ATOM      8  C   UNL     1      -4.973   3.452 -23.443  0.00  0.00    +0.049 A 
ATOM      9  C   UNL     1      -4.763   3.056 -22.264  0.00  0.00    +0.162 A 
ATOM     10  C   UNL     1      -3.570   2.700 -21.876  0.00  0.00    +0.163 A 
ATOM     11  C   UNL     1      -2.539   2.735 -22.689  0.00  0.00    +0.009 A 
ATOM     12  N   UNL     1       0.439   2.194 -22.887  0.00  0.00    +0.236 N 
ATOM     13  H   UNL     1       1.365   2.133 -23.309  0.00  0.00    +0.203 HD
ATOM     14  C   UNL     1       1.604   2.101 -23.363  0.00  0.00    +0.190 C 
ATOM     15  C   UNL     1       0.161   1.875 -21.634  0.00  0.00    +0.132 C 
ATOM     16  C   UNL     1      -1.091   2.020 -21.276  0.00  0.00    +0.064 C 
ATOM     17  C   UNL     1      -1.837   2.440 -22.175  0.00  0.00    +0.023 C 
ATOM     18  C   UNL     1      -3.237   2.853 -22.612  0.00  0.00    +0.095 C 
ATOM     19  C   UNL     1      -3.404   3.315 -24.044  0.00  0.00    +0.198 C 
ATOM     20  O   UNL     1      -3.086   3.813 -25.923  0.00  0.00    -0.289 OA
ENDROOT
BRANCH   1  22
ATOM     21  C   UNL     1      -2.875   3.633 -27.338  0.00  0.00    +0.277 C 
ATOM     22  O   UNL     1      -1.992   3.669 -26.178  0.00  0.00    -0.492 OA
ENDBRANCH   1  22
BRANCH  10  23
ATOM     23  O   UNL     1      -4.100   2.488 -20.811  0.00  0.00    -0.503 OA
ATOM     24  H   UNL     1      -4.657   1.742 -20.706  0.00  0.00    +0.292 HD
ENDBRANCH  10  23
BRANCH   9  25
ATOM     25  O   UNL     1      -5.675   2.963 -21.337  0.00  0.00    -0.491 OA
ATOM     26  C   UNL     1      -6.867   2.695 -21.534  0.00  0.00    +0.277 C 
ENDBRANCH   9  25
TORSDOF 3
ENDMDL
MODEL 5
REMARK VINA RESULT:    -9.972      1.988      4.107
REMARK INTER + INTRA:          -9.915
REMARK INTER:                 -10.751
REMARK INTRA:                   0.836
REMARK UNBOUND:                 0.931
REMARK  Name = ZINC000001280592
REMARK  6 active torsions:
REMARK  status: ('A' for Active; 'I' for Inactive)
REMARK    1  A    between atoms: C_1  and  O_2
REMARK    2  A    between atoms: O_2  and  C_3
REMARK    3  A    between atoms: C_11  and  O_12
REMARK    4  A    between atoms: O_12  and  C_13
REMARK    5  A    between atoms: C_14  and  O_15
REMARK    6  A    between atoms: N_20  and  C_21
REMARK                            x       y       z     vdW  Elec       q    Type
REMARK                         _______ _______ _______ _____ _____    ______ ____
ROOT
ATOM      1  C   UNL     1      -0.963   3.605 -24.290  0.00  0.00    +0.159 C 
ATOM      2  C   UNL     1      -1.456   3.567 -25.116  0.00  0.00    +0.032 C 
ATOM      3  C   UNL     1      -2.961   3.502 -25.243  0.00  0.00    +0.075 C 
ATOM      4  C   UNL     1      -2.677   3.495 -26.098  0.00  0.00    +0.076 C 
ATOM      5  C   UNL     1      -1.763   3.540 -25.792  0.00  0.00    +0.090 C 
ATOM      6  C   UNL     1      -1.975   3.566 -24.161  0.00  0.00    -0.035 A 
ATOM      7  C   UNL     1      -1.097   3.633 -22.782  0.00  0.00    +0.008 A 
ATOM      8  C   UNL     1      -1.668   3.633 -21.702  0.00  0.00    +0.049 A 
ATOM      9  C   UNL     1      -2.928   3.582 -21.665  0.00  0.00    +0.162 A 
ATOM     10  C   UNL     1      -3.632   3.529 -22.762  0.00  0.00    +0.163 A 
ATOM     11  C   UNL     1      -3.066   3.526 -23.948  0.00  0.00    +0.009 A 
ATOM     12  N   UNL     1      -3.631   3.438 -26.926  0.00  0.00    +0.236 N 
ATOM     13  H   UNL     1      -3.438   3.424 -27.927  0.00  0.00    +0.203 HD
ATOM     14  C   UNL     1      -3.445   3.418 -28.174  0.00  0.00    +0.190 C 
ATOM     15  C   UNL     1      -4.840   3.400 -26.393  0.00  0.00    +0.132 C 
ATOM     16  C   UNL     1      -4.884   3.426 -25.083  0.00  0.00    +0.064 C 
ATOM     17  C   UNL     1      -3.773   3.484 -24.534  0.00  0.00    +0.023 C 
ATOM     18  C   UNL     1      -2.965   3.546 -23.243  0.00  0.00    +0.095 C 
ATOM     19  C   UNL     1      -1.458   3.605 -23.375  0.00  0.00    +0.198 C 
ATOM     20  O   UNL     1       0.381   3.666 -24.078  0.00  0.00    -0.289 OA
ENDROOT
BRANCH   1  22
ATOM     21  C   UNL     1       1.641   3.308 -24.597  0.00  0.00    +0.277 C 
ATOM     22  O   UNL     1       0.360   3.640 -25.210  0.00  0.00    -0.492 OA
ENDBRANCH   1  22
BRANCH  10  23
ATOM     23  O   UNL     1      -4.584   3.506 -22.018  0.00  0.00    -0.503 OA
ATOM     24  H   UNL     1      -4.862   4.291 -21.590  0.00  0.00    +0.292 HD
ENDBRANCH  10  23
BRANCH   9  25
ATOM     25  O   UNL     1      -3.640   3.576 -20.574  0.00  0.00    -0.491 OA
ATOM     26  C   UNL     1      -3.193   3.730 -19.430  0.00  0.00    +0.277 C 
ENDBRANCH   9  25
TORSDOF 3
ENDMDL
MODEL 6
REMARK VINA RESULT:    -9.919      1.722      2.657
REMARK INTER + INTRA:          -9.858
REMARK INTER:                 -10.711
REMARK INTRA:                   0.854
REMARK UNBOUND:                 0.931
REMARK  Name = ZINC000001280592
REMARK  6 active torsions:
REMARK  status: ('A' for Active; 'I' for Inactive)
REMARK    1  A    between atoms: C_1  and  O_2
REMARK    2  A    between atoms: O_2  and  C_3
REMARK    3  A    between atoms: C_11  and  O_12
REMARK    4  A    between atoms: O_12  and  C_13
REMARK    5  A    between atoms: C_14  and  O_15
REMARK    6  A    between atoms: N_20  and  C_21
REMARK                            x       y       z     vdW  Elec       q    Type
REMARK                         _______ _______ _______ _____ _____    ______ ____
ROOT
ATOM      1  C   UNL     1       0.288   2.923 -24.113  0.00  0.00    +0.159 C 
ATOM      2  C   UNL     1      -0.656   3.054 -23.971  0.00  0.00    +0.032 C 
ATOM      3  C   UNL     1      -1.421   2.676 -22.723  0.00  0.00    +0.075 C 
ATOM      4  C   UNL     1      -2.052   3.034 -23.257  0.00  0.00    +0.076 C 
ATOM      5  C   UNL     1      -1.385   3.189 -23.937  0.00  0.00    +0.090 C 
ATOM      6  C   UNL     1      -0.038   2.598 -23.202  0.00  0.00    -0.035 A 
ATOM      7  C   UNL     1       1.560   2.394 -23.487  0.00  0.00    +0.008 A 
ATOM      8  C   UNL     1       2.265   1.882 -22.630  0.00  0.00    +0.049 A 
ATOM      9  C   UNL     1       1.751   1.518 -21.537  0.00  0.00    +0.162 A 
ATOM     10  C   UNL     1       0.477   1.679 -21.305  0.00  0.00    +0.163 A 
ATOM     11  C   UNL     1      -0.323   2.224 -22.193  0.00  0.00    +0.009 A 
ATOM     12  N   UNL     1      -3.197   3.038 -22.720  0.00  0.00    +0.236 N 
ATOM     13  H   UNL     1      -3.997   3.418 -23.225  0.00  0.00    +0.203 HD
ATOM     14  C   UNL     1      -4.218   3.496 -23.303  0.00  0.00    +0.190 C 
ATOM     15  C   UNL     1      -3.251   2.526 -21.502  0.00  0.00    +0.132 C 
ATOM     16  C   UNL     1      -2.114   2.087 -21.020  0.00  0.00    +0.064 C 
ATOM     17  C   UNL     1      -1.147   2.218 -21.786  0.00  0.00    +0.023 C 
ATOM     18  C   UNL     1       0.343   2.022 -22.041  0.00  0.00    +0.095 C 
ATOM     19  C   UNL     1       0.880   2.486 -23.378  0.00  0.00    +0.198 C 
ATOM     20  O   UNL     1       1.058   3.228 -25.193  0.00  0.00    -0.289 OA
ENDROOT
BRANCH   1  22
ATOM     21  C   UNL     1       1.145   4.338 -26.168  0.00  0.00    +0.277 C 
ATOM     22  O   UNL     1       0.050   3.592 -25.560  0.00  0.00    -0.492 OA
ENDBRANCH   1  22
BRANCH  10  23
ATOM     23  O   UNL     1       0.721   1.171 -20.236  0.00  0.00    -0.503 OA
ATOM     24  H   UNL     1       0.667   0.241 -20.138  0.00  0.00    +0.292 HD
ENDBRANCH  10  23
BRANCH   9  25
ATOM     25  O   UNL     1       2.405   0.963 -20.556  0.00  0.00    -0.491 OA
ATOM     26  C   UNL     1       3.586   0.594 -20.604  0.00  0.00    +0.277 C 
ENDBRANCH   9  25
TORSDOF 3
ENDMDL
MODEL 7
REMARK VINA RESULT:    -9.621      1.981      3.568
REMARK INTER + INTRA:          -9.533
REMARK INTER:                 -10.403
REMARK INTRA:                   0.869
REMARK UNBOUND:                 0.931
REMARK  Name = ZINC000001280592
REMARK  6 active torsions:
REMARK  status: ('A' for Active; 'I' for Inactive)
REMARK    1  A    between atoms: C_1  and  O_2
REMARK    2  A    between atoms: O_2  and  C_3
REMARK    3  A    between atoms: C_11  and  O_12
REMARK    4  A    between atoms: O_12  and  C_13
REMARK    5  A    between atoms: C_14  and  O_15
REMARK    6  A    between atoms: N_20  and  C_21
REMARK                            x       y       z     vdW  Elec       q    Type
REMARK                         _______ _______ _______ _____ _____    ______ ____
ROOT
ATOM      1  C   UNL     1      -2.302   2.311 -21.992  0.00  0.00    +0.159 C 
ATOM      2  C   UNL     1      -2.641   2.646 -22.829  0.00  0.00    +0.032 C 
ATOM      3  C   UNL     1      -1.811   2.966 -24.052  0.00  0.00    +0.075 C 
ATOM      4  C   UNL     1      -2.652   3.163 -24.310  0.00  0.00    +0.076 C 
ATOM      5  C   UNL     1      -2.977   2.901 -23.440  0.00  0.00    +0.090 C 
ATOM      6  C   UNL     1      -1.578   2.464 -22.695  0.00  0.00    -0.035 A 
ATOM      7  C   UNL     1      -1.046   1.895 -21.256  0.00  0.00    +0.008 A 
ATOM      8  C   UNL     1       0.147   1.686 -21.093  0.00  0.00    +0.049 A 
ATOM      9  C   UNL     1       0.952   1.912 -22.037  0.00  0.00    +0.162 A 
ATOM     10  C   UNL     1       0.533   2.365 -23.186  0.00  0.00    +0.163 A 
ATOM     11  C   UNL     1      -0.738   2.606 -23.412  0.00  0.00    +0.009 A 
ATOM     12  N   UNL     1      -2.708   3.584 -25.501  0.00  0.00    +0.236 N 
ATOM     13  H   UNL     1      -3.605   3.841 -25.910  0.00  0.00    +0.203 HD
ATOM     14  C   UNL     1      -3.793   3.915 -26.053  0.00  0.00    +0.190 C 
ATOM     15  C   UNL     1      -1.547   3.655 -26.130  0.00  0.00    +0.132 C 
ATOM     16  C   UNL     1      -0.501   3.280 -25.435  0.00  0.00    +0.064 C 
ATOM     17  C   UNL     1      -0.759   2.910 -24.279  0.00  0.00    +0.023 C 
ATOM     18  C   UNL     1      -0.252   2.381 -22.942  0.00  0.00    +0.095 C 
ATOM     19  C   UNL     1      -1.285   2.137 -21.862  0.00  0.00    +0.198 C 
ATOM     20  O   UNL     1      -2.965   1.997 -20.845  0.00  0.00    -0.289 OA
ENDROOT
BRANCH   1  22
ATOM     21  C   UNL     1      -4.107   2.720 -20.112  0.00  0.00    +0.277 C 
ATOM     22  O   UNL     1      -3.833   2.332 -21.491  0.00  0.00    -0.492 OA
ENDBRANCH   1  22
BRANCH  10  23
ATOM     23  O   UNL     1       1.699   2.326 -23.501  0.00  0.00    -0.503 OA
ATOM     24  H   UNL     1       2.027   2.913 -24.153  0.00  0.00    +0.292 HD
ENDBRANCH  10  23
BRANCH   9  25
ATOM     25  O   UNL     1       2.241   1.726 -21.975  0.00  0.00    -0.491 OA
ATOM     26  C   UNL     1       2.851   1.283 -20.993  0.00  0.00    +0.277 C 
ENDBRANCH   9  25
TORSDOF 3
ENDMDL
MODEL 8
REMARK VINA RESULT:    -9.428      2.877      4.535
REMARK INTER + INTRA:          -9.324
REMARK INTER:                 -10.255
REMARK INTRA:                   0.931
REMARK UNBOUND:                 0.931
REMARK  Name = ZINC000001280592
REMARK  6 active torsions:
REMARK  status: ('A' for Active; 'I' for Inactive)
REMARK    1  A    between atoms: C_1  and  O_2
REMARK    2  A    between atoms: O_2  and  C_3
REMARK    3  A    between atoms: C_11  and  O_12
REMARK    4  A    between atoms: O_12  and  C_13
REMARK    5  A    between atoms: C_14  and  O_15
REMARK    6  A    between atoms: N_20  and  C_21
REMARK                            x       y       z     vdW  Elec       q    Type
REMARK                         _______ _______ _______ _____ _____    ______ ____
ROOT
ATOM      1  C   UNL     1       2.387   4.455 -23.037  0.00  0.00    +0.159 C 
ATOM      2  C   UNL     1       1.459   4.539 -23.278  0.00  0.00    +0.032 C 
ATOM      3  C   UNL     1       0.434   3.428 -23.244  0.00  0.00    +0.075 C 
ATOM      4  C   UNL     1      -0.037   4.141 -23.534  0.00  0.00    +0.076 C 
ATOM      5  C   UNL     1       0.759   4.685 -23.481  0.00  0.00    +0.090 C 
ATOM      6  C   UNL     1       1.859   3.586 -22.945  0.00  0.00    -0.035 A 
ATOM      7  C   UNL     1       3.443   3.488 -22.545  0.00  0.00    +0.008 A 
ATOM      8  C   UNL     1       3.906   2.422 -22.168  0.00  0.00    +0.049 A 
ATOM      9  C   UNL     1       3.156   1.410 -22.094  0.00  0.00    +0.162 A 
ATOM     10  C   UNL     1       1.893   1.483 -22.412  0.00  0.00    +0.163 A 
ATOM     11  C   UNL     1       1.347   2.606 -22.822  0.00  0.00    +0.009 A 
ATOM     12  N   UNL     1      -1.251   3.864 -23.753  0.00  0.00    +0.236 N 
ATOM     13  H   UNL     1      -1.888   4.587 -24.085  0.00  0.00    +0.203 HD
ATOM     14  C   UNL     1      -2.078   4.723 -24.164  0.00  0.00    +0.190 C 
ATOM     15  C   UNL     1      -1.595   2.608 -23.521  0.00  0.00    +0.132 C 
ATOM     16  C   UNL     1      -0.633   1.826 -23.097  0.00  0.00    +0.064 C 
ATOM     17  C   UNL     1       0.468   2.385 -22.976  0.00  0.00    +0.023 C 
ATOM     18  C   UNL     1       1.942   2.283 -22.600  0.00  0.00    +0.095 C 
ATOM     19  C   UNL     1       2.772   3.543 -22.718  0.00  0.00    +0.198 C 
ATOM     20  O   UNL     1       3.377   5.390 -23.035  0.00  0.00    -0.289 OA
ENDROOT
BRANCH   1  22
ATOM     21  C   UNL     1       3.444   6.838 -22.635  0.00  0.00    +0.277 C 
ATOM     22  O   UNL     1       2.509   6.020 -23.399  0.00  0.00    -0.492 OA
ENDBRANCH   1  22
BRANCH  10  23
ATOM     23  O   UNL     1       1.867   0.309 -22.125  0.00  0.00    -0.503 OA
ATOM     24  H   UNL     1       2.540  -0.055 -21.586  0.00  0.00    +0.292 HD
ENDBRANCH  10  23
BRANCH   9  25
ATOM     25  O   UNL     1       3.540   0.226 -21.707  0.00  0.00    -0.491 OA
ATOM     26  C   UNL     1       4.468  -0.001 -20.920  0.00  0.00    +0.277 C 
ENDBRANCH   9  25
TORSDOF 3
ENDMDL
MODEL 9
REMARK VINA RESULT:    -9.294      2.828      4.673
REMARK INTER + INTRA:          -9.177
REMARK INTER:                 -10.141
REMARK INTRA:                   0.964
REMARK UNBOUND:                 0.931
REMARK  Name = ZINC000001280592
REMARK  6 active torsions:
REMARK  status: ('A' for Active; 'I' for Inactive)
REMARK    1  A    between atoms: C_1  and  O_2
REMARK    2  A    between atoms: O_2  and  C_3
REMARK    3  A    between atoms: C_11  and  O_12
REMARK    4  A    between atoms: O_12  and  C_13
REMARK    5  A    between atoms: C_14  and  O_15
REMARK    6  A    between atoms: N_20  and  C_21
REMARK                            x       y       z     vdW  Elec       q    Type
REMARK                         _______ _______ _______ _____ _____    ______ ____
ROOT
ATOM      1  C   UNL     1       2.483   2.324 -23.868  0.00  0.00    +0.159 C 
ATOM      2  C   UNL     1       1.524   2.383 -23.939  0.00  0.00    +0.032 C 
ATOM      3  C   UNL     1       0.692   3.612 -23.648  0.00  0.00    +0.075 C 
ATOM      4  C   UNL     1       0.080   2.995 -23.889  0.00  0.00    +0.076 C 
ATOM      5  C   UNL     1       0.786   2.349 -24.017  0.00  0.00    +0.090 C 
ATOM      6  C   UNL     1       2.110   3.244 -23.627  0.00  0.00    -0.035 A 
ATOM      7  C   UNL     1       3.736   3.098 -23.520  0.00  0.00    +0.008 A 
ATOM      8  C   UNL     1       4.407   4.058 -23.171  0.00  0.00    +0.049 A 
ATOM      9  C   UNL     1       3.835   5.149 -22.897  0.00  0.00    +0.162 A 
ATOM     10  C   UNL     1       2.539   5.270 -22.981  0.00  0.00    +0.163 A 
ATOM     11  C   UNL     1       1.774   4.268 -23.351  0.00  0.00    +0.009 A 
ATOM     12  N   UNL     1      -1.100   3.446 -23.863  0.00  0.00    +0.236 N 
ATOM     13  H   UNL     1      -1.883   2.844 -24.115  0.00  0.00    +0.203 HD
ATOM     14  C   UNL     1      -2.102   2.742 -24.166  0.00  0.00    +0.190 C 
ATOM     15  C   UNL     1      -1.214   4.711 -23.494  0.00  0.00    +0.132 C 
ATOM     16  C   UNL     1      -0.090   5.321 -23.208  0.00  0.00    +0.064 C 
ATOM     17  C   UNL     1       0.923   4.614 -23.326  0.00  0.00    +0.023 C 
ATOM     18  C   UNL     1       2.439   4.490 -23.223  0.00  0.00    +0.095 C 
ATOM     19  C   UNL     1       3.045   3.147 -23.570  0.00  0.00    +0.198 C 
ATOM     20  O   UNL     1       3.312   1.271 -24.107  0.00  0.00    -0.289 OA
ENDROOT
BRANCH   1  22
ATOM     21  C   UNL     1       3.112   0.322 -25.466  0.00  0.00    +0.277 C 
ATOM     22  O   UNL     1       2.313   0.794 -24.342  0.00  0.00    -0.492 OA
ENDBRANCH   1  22
BRANCH  10  23
ATOM     23  O   UNL     1       2.733   6.407 -22.622  0.00  0.00    -0.503 OA
ATOM     24  H   UNL     1       3.116   7.025 -23.214  0.00  0.00    +0.292 HD
ENDBRANCH  10  23
BRANCH   9  25
ATOM     25  O   UNL     1       4.448   6.234 -22.516  0.00  0.00    -0.491 OA
ATOM     26  C   UNL     1       5.647   6.309 -22.216  0.00  0.00    +0.277 C 
ENDBRANCH   9  25
TORSDOF 3
ENDMDL
