MODEL 1
REMARK VINA RESULT:   -10.086      0.000      0.000
REMARK INTER + INTRA:         -10.086
REMARK INTER:                 -10.086
REMARK INTRA:                   0.000
REMARK UNBOUND:                 0.000
REMARK  Name = ZINC000003897050
REMARK  1 active torsions:
REMARK  status: ('A' for Active; 'I' for Inactive)
REMARK    1  A    between atoms: C_8  and  C_9
REMARK                            x       y       z     vdW  Elec       q    Type
REMARK                         _______ _______ _______ _____ _____    ______ ____
ROOT
ATOM      1  C   UNL     1       0.480   1.501 -21.104  0.00  0.00    +0.020 C 
ATOM      2  C   UNL     1       0.115   2.033 -22.233  0.00  0.00    +0.036 C 
ATOM      3  C   UNL     1       0.885   2.257 -23.255  0.00  0.00    +0.335 C 
ATOM      4  O   UNL     1       0.162   2.796 -24.191  0.00  0.00    -0.457 OA
ATOM      5  C   UNL     1      -1.055   2.905 -23.747  0.00  0.00    +0.185 C 
ATOM      6  C   UNL     1      -2.140   3.373 -24.288  0.00  0.00    +0.052 C 
ATOM      7  C   UNL     1      -3.255   3.369 -23.620  0.00  0.00    -0.022 C 
ATOM      8  C   UNL     1      -4.340   3.836 -24.161  0.00  0.00    +0.007 C 
ATOM      9  C   UNL     1      -5.454   3.832 -23.492  0.00  0.00    +0.005 C 
ATOM     10  C   UNL     1      -5.483   3.360 -22.281  0.00  0.00    +0.030 C 
ATOM     11  C   UNL     1      -4.398   2.892 -21.738  0.00  0.00    -0.073 C 
ATOM     12  C   UNL     1      -4.427   2.420 -20.527  0.00  0.00    +0.008 C 
ATOM     13  C   UNL     1      -3.226   3.841 -24.830  0.00  0.00    +0.012 C 
ATOM     14  C   UNL     1      -3.283   2.896 -22.408  0.00  0.00    +0.021 C 
ATOM     15  C   UNL     1      -2.198   2.428 -21.866  0.00  0.00    +0.020 C 
ATOM     16  O   UNL     1       2.155   1.990 -23.329  0.00  0.00    -0.245 OA
ATOM     17  C   UNL     1      -1.084   2.433 -22.536  0.00  0.00    +0.067 C 
ENDROOT
TORSDOF 0
ENDMDL
MODEL 2
REMARK VINA RESULT:   -10.006      0.944      2.530
REMARK INTER + INTRA:         -10.006
REMARK INTER:                 -10.006
REMARK INTRA:                   0.000
REMARK UNBOUND:                 0.000
REMARK  Name = ZINC000003897050
REMARK  1 active torsions:
REMARK  status: ('A' for Active; 'I' for Inactive)
REMARK    1  A    between atoms: C_8  and  C_9
REMARK                            x       y       z     vdW  Elec       q    Type
REMARK                         _______ _______ _______ _____ _____    ______ ____
ROOT
ATOM      1  C   UNL     1       0.579   3.328 -25.080  0.00  0.00    +0.020 C 
ATOM      2  C   UNL     1       0.129   2.998 -23.906  0.00  0.00    +0.036 C 
ATOM      3  C   UNL     1       0.838   2.548 -22.915  0.00  0.00    +0.335 C 
ATOM      4  O   UNL     1       0.037   2.332 -21.914  0.00  0.00    -0.457 OA
ATOM      5  C   UNL     1      -1.167   2.650 -22.287  0.00  0.00    +0.185 C 
ATOM      6  C   UNL     1      -2.307   2.617 -21.664  0.00  0.00    +0.052 C 
ATOM      7  C   UNL     1      -3.392   2.997 -22.272  0.00  0.00    -0.022 C 
ATOM      8  C   UNL     1      -4.532   2.964 -21.649  0.00  0.00    +0.007 C 
ATOM      9  C   UNL     1      -5.616   3.343 -22.258  0.00  0.00    +0.005 C 
ATOM     10  C   UNL     1      -5.560   3.755 -23.490  0.00  0.00    +0.030 C 
ATOM     11  C   UNL     1      -4.419   3.788 -24.114  0.00  0.00    -0.073 C 
ATOM     12  C   UNL     1      -4.363   4.200 -25.345  0.00  0.00    +0.008 C 
ATOM     13  C   UNL     1      -3.448   2.585 -21.040  0.00  0.00    +0.012 C 
ATOM     14  C   UNL     1      -3.335   3.409 -23.505  0.00  0.00    +0.021 C 
ATOM     15  C   UNL     1      -2.194   3.441 -24.127  0.00  0.00    +0.020 C 
ATOM     16  O   UNL     1       2.122   2.347 -22.923  0.00  0.00    -0.245 OA
ATOM     17  C   UNL     1      -1.111   3.062 -23.519  0.00  0.00    +0.067 C 
ENDROOT
TORSDOF 0
ENDMDL
MODEL 3
REMARK VINA RESULT:    -9.581      2.204      5.298
REMARK INTER + INTRA:          -9.581
REMARK INTER:                  -9.581
REMARK INTRA:                   0.000
REMARK UNBOUND:                 0.000
REMARK  Name = ZINC000003897050
REMARK  1 active torsions:
REMARK  status: ('A' for Active; 'I' for Inactive)
REMARK    1  A    between atoms: C_8  and  C_9
REMARK                            x       y       z     vdW  Elec       q    Type
REMARK                         _______ _______ _______ _____ _____    ______ ____
ROOT
ATOM      1  C   UNL     1      -4.664   4.251 -24.395  0.00  0.00    +0.020 C 
ATOM      2  C   UNL     1      -4.202   3.613 -23.361  0.00  0.00    +0.036 C 
ATOM      3  C   UNL     1      -4.891   3.237 -22.325  0.00  0.00    +0.335 C 
ATOM      4  O   UNL     1      -4.085   2.631 -21.505  0.00  0.00    -0.457 OA
ATOM      5  C   UNL     1      -2.898   2.632 -22.035  0.00  0.00    +0.185 C 
ATOM      6  C   UNL     1      -1.760   2.159 -21.621  0.00  0.00    +0.052 C 
ATOM      7  C   UNL     1      -0.695   2.292 -22.353  0.00  0.00    -0.022 C 
ATOM      8  C   UNL     1       0.443   1.818 -21.939  0.00  0.00    +0.007 C 
ATOM      9  C   UNL     1       1.508   1.952 -22.672  0.00  0.00    +0.005 C 
ATOM     10  C   UNL     1       1.435   2.559 -23.820  0.00  0.00    +0.030 C 
ATOM     11  C   UNL     1       0.298   3.033 -24.235  0.00  0.00    -0.073 C 
ATOM     12  C   UNL     1       0.225   3.640 -25.382  0.00  0.00    +0.008 C 
ATOM     13  C   UNL     1      -0.622   1.685 -21.206  0.00  0.00    +0.012 C 
ATOM     14  C   UNL     1      -0.768   2.900 -23.501  0.00  0.00    +0.021 C 
ATOM     15  C   UNL     1      -1.905   3.373 -23.915  0.00  0.00    +0.020 C 
ATOM     16  O   UNL     1      -6.163   3.434 -22.141  0.00  0.00    -0.245 OA
ATOM     17  C   UNL     1      -2.970   3.239 -23.182  0.00  0.00    +0.067 C 
ENDROOT
TORSDOF 0
ENDMDL
MODEL 4
REMARK VINA RESULT:    -9.444      2.140      4.642
REMARK INTER + INTRA:          -9.444
REMARK INTER:                  -9.444
REMARK INTRA:                   0.000
REMARK UNBOUND:                 0.000
REMARK  Name = ZINC000003897050
REMARK  1 active torsions:
REMARK  status: ('A' for Active; 'I' for Inactive)
REMARK    1  A    between atoms: C_8  and  C_9
REMARK                            x       y       z     vdW  Elec       q    Type
REMARK                         _______ _______ _______ _____ _____    ______ ____
ROOT
ATOM      1  C   UNL     1      -4.145   2.270 -20.600  0.00  0.00    +0.020 C 
ATOM      2  C   UNL     1      -3.998   2.775 -21.789  0.00  0.00    +0.036 C 
ATOM      3  C   UNL     1      -4.932   3.325 -22.506  0.00  0.00    +0.335 C 
ATOM      4  O   UNL     1      -4.402   3.709 -23.629  0.00  0.00    -0.457 OA
ATOM      5  C   UNL     1      -3.140   3.397 -23.605  0.00  0.00    +0.185 C 
ATOM      6  C   UNL     1      -2.186   3.563 -24.473  0.00  0.00    +0.052 C 
ATOM      7  C   UNL     1      -0.982   3.153 -24.203  0.00  0.00    -0.022 C 
ATOM      8  C   UNL     1      -0.029   3.320 -25.070  0.00  0.00    +0.007 C 
ATOM      9  C   UNL     1       1.174   2.910 -24.800  0.00  0.00    +0.005 C 
ATOM     10  C   UNL     1       1.424   2.333 -23.662  0.00  0.00    +0.030 C 
ATOM     11  C   UNL     1       0.471   2.166 -22.794  0.00  0.00    -0.073 C 
ATOM     12  C   UNL     1       0.721   1.588 -21.656  0.00  0.00    +0.008 C 
ATOM     13  C   UNL     1      -1.232   3.731 -25.341  0.00  0.00    +0.012 C 
ATOM     14  C   UNL     1      -0.733   2.576 -23.064  0.00  0.00    +0.021 C 
ATOM     15  C   UNL     1      -1.687   2.409 -22.197  0.00  0.00    +0.020 C 
ATOM     16  O   UNL     1      -6.177   3.465 -22.162  0.00  0.00    -0.245 OA
ATOM     17  C   UNL     1      -2.890   2.820 -22.468  0.00  0.00    +0.067 C 
ENDROOT
TORSDOF 0
ENDMDL
MODEL 5
REMARK VINA RESULT:    -8.963      1.990      4.791
REMARK INTER + INTRA:          -8.963
REMARK INTER:                  -8.963
REMARK INTRA:                   0.000
REMARK UNBOUND:                 0.000
REMARK  Name = ZINC000003897050
REMARK  1 active torsions:
REMARK  status: ('A' for Active; 'I' for Inactive)
REMARK    1  A    between atoms: C_8  and  C_9
REMARK                            x       y       z     vdW  Elec       q    Type
REMARK                         _______ _______ _______ _____ _____    ______ ____
ROOT
ATOM      1  C   UNL     1      -4.574   3.338 -22.496  0.00  0.00    +0.020 C 
ATOM      2  C   UNL     1      -3.772   3.650 -23.470  0.00  0.00    +0.036 C 
ATOM      3  C   UNL     1      -4.095   4.301 -24.547  0.00  0.00    +0.335 C 
ATOM      4  O   UNL     1      -3.028   4.419 -25.280  0.00  0.00    -0.457 OA
ATOM      5  C   UNL     1      -2.045   3.840 -24.655  0.00  0.00    +0.185 C 
ATOM      6  C   UNL     1      -0.792   3.684 -24.961  0.00  0.00    +0.052 C 
ATOM      7  C   UNL     1       0.003   3.053 -24.148  0.00  0.00    -0.022 C 
ATOM      8  C   UNL     1       1.256   2.898 -24.454  0.00  0.00    +0.007 C 
ATOM      9  C   UNL     1       2.050   2.267 -23.641  0.00  0.00    +0.005 C 
ATOM     10  C   UNL     1       1.590   1.791 -22.522  0.00  0.00    +0.030 C 
ATOM     11  C   UNL     1       0.336   1.946 -22.215  0.00  0.00    -0.073 C 
ATOM     12  C   UNL     1      -0.124   1.471 -21.096  0.00  0.00    +0.008 C 
ATOM     13  C   UNL     1       0.463   3.529 -25.268  0.00  0.00    +0.012 C 
ATOM     14  C   UNL     1      -0.458   2.578 -23.029  0.00  0.00    +0.021 C 
ATOM     15  C   UNL     1      -1.712   2.733 -22.723  0.00  0.00    +0.020 C 
ATOM     16  O   UNL     1      -5.277   4.756 -24.840  0.00  0.00    -0.245 OA
ATOM     17  C   UNL     1      -2.505   3.364 -23.536  0.00  0.00    +0.067 C 
ENDROOT
TORSDOF 0
ENDMDL
MODEL 6
REMARK VINA RESULT:    -8.194      2.368      3.757
REMARK INTER + INTRA:          -8.194
REMARK INTER:                  -8.194
REMARK INTRA:                   0.000
REMARK UNBOUND:                 0.000
REMARK  Name = ZINC000003897050
REMARK  1 active torsions:
REMARK  status: ('A' for Active; 'I' for Inactive)
REMARK    1  A    between atoms: C_8  and  C_9
REMARK                            x       y       z     vdW  Elec       q    Type
REMARK                         _______ _______ _______ _____ _____    ______ ____
ROOT
ATOM      1  C   UNL     1       3.467   0.493 -21.230  0.00  0.00    +0.020 C 
ATOM      2  C   UNL     1       3.449   1.598 -21.915  0.00  0.00    +0.036 C 
ATOM      3  C   UNL     1       4.487   2.228 -22.377  0.00  0.00    +0.335 C 
ATOM      4  O   UNL     1       4.068   3.285 -23.006  0.00  0.00    -0.457 OA
ATOM      5  C   UNL     1       2.771   3.309 -22.932  0.00  0.00    +0.185 C 
ATOM      6  C   UNL     1       1.889   4.145 -23.392  0.00  0.00    +0.052 C 
ATOM      7  C   UNL     1       0.623   3.940 -23.179  0.00  0.00    -0.022 C 
ATOM      8  C   UNL     1      -0.259   4.776 -23.638  0.00  0.00    +0.007 C 
ATOM      9  C   UNL     1      -1.524   4.570 -23.424  0.00  0.00    +0.005 C 
ATOM     10  C   UNL     1      -1.908   3.526 -22.750  0.00  0.00    +0.030 C 
ATOM     11  C   UNL     1      -1.026   2.689 -22.289  0.00  0.00    -0.073 C 
ATOM     12  C   UNL     1      -1.409   1.646 -21.615  0.00  0.00    +0.008 C 
ATOM     13  C   UNL     1       1.006   4.983 -23.853  0.00  0.00    +0.012 C 
ATOM     14  C   UNL     1       0.240   2.896 -22.504  0.00  0.00    +0.021 C 
ATOM     15  C   UNL     1       1.122   2.059 -22.044  0.00  0.00    +0.020 C 
ATOM     16  O   UNL     1       5.727   1.864 -22.235  0.00  0.00    -0.245 OA
ATOM     17  C   UNL     1       2.387   2.266 -22.258  0.00  0.00    +0.067 C 
ENDROOT
TORSDOF 0
ENDMDL
MODEL 7
REMARK VINA RESULT:    -8.070      2.060      3.932
REMARK INTER + INTRA:          -8.070
REMARK INTER:                  -8.070
REMARK INTRA:                   0.000
REMARK UNBOUND:                 0.000
REMARK  Name = ZINC000003897050
REMARK  1 active torsions:
REMARK  status: ('A' for Active; 'I' for Inactive)
REMARK    1  A    between atoms: C_8  and  C_9
REMARK                            x       y       z     vdW  Elec       q    Type
REMARK                         _______ _______ _______ _____ _____    ______ ____
ROOT
ATOM      1  C   UNL     1      -5.205   2.994 -26.378  0.00  0.00    +0.020 C 
ATOM      2  C   UNL     1      -4.011   3.277 -25.951  0.00  0.00    +0.036 C 
ATOM      3  C   UNL     1      -2.968   3.508 -26.691  0.00  0.00    +0.335 C 
ATOM      4  O   UNL     1      -1.962   3.751 -25.905  0.00  0.00    -0.457 OA
ATOM      5  C   UNL     1      -2.384   3.671 -24.678  0.00  0.00    +0.185 C 
ATOM      6  C   UNL     1      -1.778   3.826 -23.538  0.00  0.00    +0.052 C 
ATOM      7  C   UNL     1      -2.437   3.689 -22.426  0.00  0.00    -0.022 C 
ATOM      8  C   UNL     1      -1.831   3.845 -21.287  0.00  0.00    +0.007 C 
ATOM      9  C   UNL     1      -2.491   3.707 -20.176  0.00  0.00    +0.005 C 
ATOM     10  C   UNL     1      -3.757   3.414 -20.204  0.00  0.00    +0.030 C 
ATOM     11  C   UNL     1      -4.364   3.258 -21.343  0.00  0.00    -0.073 C 
ATOM     12  C   UNL     1      -5.631   2.964 -21.371  0.00  0.00    +0.008 C 
ATOM     13  C   UNL     1      -1.171   3.982 -22.398  0.00  0.00    +0.012 C 
ATOM     14  C   UNL     1      -3.704   3.395 -22.455  0.00  0.00    +0.021 C 
ATOM     15  C   UNL     1      -4.310   3.240 -23.595  0.00  0.00    +0.020 C 
ATOM     16  O   UNL     1      -2.937   3.497 -27.991  0.00  0.00    -0.245 OA
ATOM     17  C   UNL     1      -3.650   3.377 -24.706  0.00  0.00    +0.067 C 
ENDROOT
TORSDOF 0
ENDMDL
MODEL 8
REMARK VINA RESULT:    -7.940      3.123      6.609
REMARK INTER + INTRA:          -7.940
REMARK INTER:                  -7.940
REMARK INTRA:                   0.000
REMARK UNBOUND:                 0.000
REMARK  Name = ZINC000003897050
REMARK  1 active torsions:
REMARK  status: ('A' for Active; 'I' for Inactive)
REMARK    1  A    between atoms: C_8  and  C_9
REMARK                            x       y       z     vdW  Elec       q    Type
REMARK                         _______ _______ _______ _____ _____    ______ ____
ROOT
ATOM      1  C   UNL     1      -1.012   5.198 -23.183  0.00  0.00    +0.020 C 
ATOM      2  C   UNL     1      -0.349   4.123 -23.489  0.00  0.00    +0.036 C 
ATOM      3  C   UNL     1      -0.860   2.991 -23.871  0.00  0.00    +0.335 C 
ATOM      4  O   UNL     1       0.116   2.160 -24.084  0.00  0.00    -0.457 OA
ATOM      5  C   UNL     1       1.232   2.779 -23.834  0.00  0.00    +0.185 C 
ATOM      6  C   UNL     1       2.472   2.394 -23.893  0.00  0.00    +0.052 C 
ATOM      7  C   UNL     1       3.426   3.222 -23.585  0.00  0.00    -0.022 C 
ATOM      8  C   UNL     1       4.666   2.837 -23.644  0.00  0.00    +0.007 C 
ATOM      9  C   UNL     1       5.618   3.666 -23.336  0.00  0.00    +0.005 C 
ATOM     10  C   UNL     1       5.331   4.879 -22.967  0.00  0.00    +0.030 C 
ATOM     11  C   UNL     1       4.091   5.265 -22.908  0.00  0.00    -0.073 C 
ATOM     12  C   UNL     1       3.804   6.478 -22.539  0.00  0.00    +0.008 C 
ATOM     13  C   UNL     1       3.713   2.009 -23.953  0.00  0.00    +0.012 C 
ATOM     14  C   UNL     1       3.137   4.436 -23.216  0.00  0.00    +0.021 C 
ATOM     15  C   UNL     1       1.897   4.821 -23.157  0.00  0.00    +0.020 C 
ATOM     16  O   UNL     1      -2.127   2.735 -24.015  0.00  0.00    -0.245 OA
ATOM     17  C   UNL     1       0.945   3.992 -23.466  0.00  0.00    +0.067 C 
ENDROOT
TORSDOF 0
ENDMDL
