MODEL 1
REMARK VINA RESULT:   -10.697      0.000      0.000
REMARK INTER + INTRA:         -11.010
REMARK INTER:                 -11.010
REMARK INTRA:                   0.000
REMARK UNBOUND:                 0.000
REMARK  Name = C=C1C(=O)O[C@@H]2C=C(C)[C@@H](O)CC=C(C)CC[C@H]12                     ZINC001081701742
REMARK  3 active torsions:
REMARK  status: ('A' for Active; 'I' for Inactive)
REMARK    1  A    between atoms: C_8  and  C_9
REMARK    2  A    between atoms: C_10  and  O_11
REMARK    3  A    between atoms: C_14  and  C_15
REMARK                            x       y       z     vdW  Elec       q    Type
REMARK                         _______ _______ _______ _____ _____    ______ ____
ROOT
ATOM      1  C   UNL     1       0.555   1.515 -21.129  0.00  0.00    +0.020 C 
ATOM      2  C   UNL     1      -0.150   1.970 -22.123  0.00  0.00    +0.036 C 
ATOM      3  C   UNL     1       0.271   2.153 -23.338  0.00  0.00    +0.336 C 
ATOM      4  O   UNL     1      -0.720   2.618 -24.039  0.00  0.00    -0.453 OA
ATOM      5  C   UNL     1      -1.753   2.723 -23.258  0.00  0.00    +0.207 C 
ATOM      6  C   UNL     1      -2.968   3.131 -23.472  0.00  0.00    +0.019 C 
ATOM      7  C   UNL     1      -3.320   3.531 -24.657  0.00  0.00    -0.045 C 
ATOM      8  C   UNL     1      -4.535   3.940 -24.873  0.00  0.00    +0.144 C 
ATOM      9  C   UNL     1      -5.399   3.948 -23.902  0.00  0.00    +0.063 C 
ATOM     10  C   UNL     1      -5.048   3.548 -22.717  0.00  0.00    -0.025 C 
ATOM     11  C   UNL     1      -3.833   3.139 -22.502  0.00  0.00    -0.076 C 
ATOM     12  C   UNL     1      -3.481   2.739 -21.317  0.00  0.00    +0.031 C 
ATOM     13  C   UNL     1      -2.265   2.330 -21.102  0.00  0.00    +0.016 C 
ATOM     14  C   UNL     1      -4.696   3.147 -21.530  0.00  0.00    +0.039 C 
ATOM     15  C   UNL     1      -2.454   3.523 -25.629  0.00  0.00    +0.041 C 
ATOM     16  O   UNL     1       1.471   1.913 -23.775  0.00  0.00    -0.245 OA
ATOM     17  C   UNL     1      -1.401   2.322 -22.072  0.00  0.00    +0.070 C 
ENDROOT
BRANCH   8  18
ATOM     18  O   UNL     1      -4.886   4.340 -26.059  0.00  0.00    -0.387 OA
ATOM     19  H   UNL     1      -5.513   5.076 -25.980  0.00  0.00    +0.210 HD
ENDBRANCH   8  18
TORSDOF 1
ENDMDL
MODEL 2
REMARK VINA RESULT:   -10.386      1.650      2.838
REMARK INTER + INTRA:         -10.689
REMARK INTER:                 -10.689
REMARK INTRA:                   0.000
REMARK UNBOUND:                 0.000
REMARK  Name = C=C1C(=O)O[C@@H]2C=C(C)[C@@H](O)CC=C(C)CC[C@H]12                     ZINC001081701742
REMARK  3 active torsions:
REMARK  status: ('A' for Active; 'I' for Inactive)
REMARK    1  A    between atoms: C_8  and  C_9
REMARK    2  A    between atoms: C_10  and  O_11
REMARK    3  A    between atoms: C_14  and  C_15
REMARK                            x       y       z     vdW  Elec       q    Type
REMARK                         _______ _______ _______ _____ _____    ______ ____
ROOT
ATOM      1  C   UNL     1       1.350   2.214 -23.164  0.00  0.00    +0.020 C 
ATOM      2  C   UNL     1       0.135   2.280 -22.703  0.00  0.00    +0.036 C 
ATOM      3  C   UNL     1      -0.261   1.872 -21.535  0.00  0.00    +0.336 C 
ATOM      4  O   UNL     1      -1.537   2.106 -21.441  0.00  0.00    -0.453 OA
ATOM      5  C   UNL     1      -1.928   2.657 -22.551  0.00  0.00    +0.207 C 
ATOM      6  C   UNL     1      -3.092   3.074 -22.952  0.00  0.00    +0.019 C 
ATOM      7  C   UNL     1      -4.125   2.966 -22.171  0.00  0.00    -0.045 C 
ATOM      8  C   UNL     1      -5.290   3.383 -22.570  0.00  0.00    +0.144 C 
ATOM      9  C   UNL     1      -5.421   3.908 -23.752  0.00  0.00    +0.063 C 
ATOM     10  C   UNL     1      -4.389   4.017 -24.533  0.00  0.00    -0.025 C 
ATOM     11  C   UNL     1      -3.224   3.599 -24.133  0.00  0.00    -0.076 C 
ATOM     12  C   UNL     1      -2.191   3.708 -24.914  0.00  0.00    +0.031 C 
ATOM     13  C   UNL     1      -1.026   3.290 -24.513  0.00  0.00    +0.016 C 
ATOM     14  C   UNL     1      -3.354   4.125 -25.315  0.00  0.00    +0.039 C 
ATOM     15  C   UNL     1      -3.994   2.440 -20.988  0.00  0.00    +0.041 C 
ATOM     16  O   UNL     1       0.486   1.328 -20.621  0.00  0.00    -0.245 OA
ATOM     17  C   UNL     1      -0.895   2.765 -23.332  0.00  0.00    +0.070 C 
ENDROOT
BRANCH   8  18
ATOM     18  O   UNL     1      -6.323   3.275 -21.789  0.00  0.00    -0.387 OA
ATOM     19  H   UNL     1      -7.063   3.780 -22.160  0.00  0.00    +0.210 HD
ENDBRANCH   8  18
TORSDOF 1
ENDMDL
MODEL 3
REMARK VINA RESULT:    -9.705      1.333      4.432
REMARK INTER + INTRA:          -9.988
REMARK INTER:                  -9.988
REMARK INTRA:                   0.000
REMARK UNBOUND:                 0.000
REMARK  Name = C=C1C(=O)O[C@@H]2C=C(C)[C@@H](O)CC=C(C)CC[C@H]12                     ZINC001081701742
REMARK  3 active torsions:
REMARK  status: ('A' for Active; 'I' for Inactive)
REMARK    1  A    between atoms: C_8  and  C_9
REMARK    2  A    between atoms: C_10  and  O_11
REMARK    3  A    between atoms: C_14  and  C_15
REMARK                            x       y       z     vdW  Elec       q    Type
REMARK                         _______ _______ _______ _____ _____    ______ ____
ROOT
ATOM      1  C   UNL     1      -5.183   2.971 -21.443  0.00  0.00    +0.020 C 
ATOM      2  C   UNL     1      -4.268   3.122 -22.355  0.00  0.00    +0.036 C 
ATOM      3  C   UNL     1      -4.445   3.634 -23.536  0.00  0.00    +0.336 C 
ATOM      4  O   UNL     1      -3.301   3.614 -24.155  0.00  0.00    -0.453 OA
ATOM      5  C   UNL     1      -2.419   3.091 -23.357  0.00  0.00    +0.207 C 
ATOM      6  C   UNL     1      -1.150   2.853 -23.500  0.00  0.00    +0.019 C 
ATOM      7  C   UNL     1      -0.552   3.158 -24.613  0.00  0.00    -0.045 C 
ATOM      8  C   UNL     1       0.717   2.920 -24.758  0.00  0.00    +0.144 C 
ATOM      9  C   UNL     1       1.390   2.377 -23.787  0.00  0.00    +0.063 C 
ATOM     10  C   UNL     1       0.794   2.072 -22.674  0.00  0.00    -0.025 C 
ATOM     11  C   UNL     1      -0.476   2.310 -22.531  0.00  0.00    -0.076 C 
ATOM     12  C   UNL     1      -1.073   2.005 -21.417  0.00  0.00    +0.031 C 
ATOM     13  C   UNL     1      -2.344   2.244 -21.274  0.00  0.00    +0.016 C 
ATOM     14  C   UNL     1       0.196   1.767 -21.559  0.00  0.00    +0.039 C 
ATOM     15  C   UNL     1      -1.227   3.701 -25.585  0.00  0.00    +0.041 C 
ATOM     16  O   UNL     1      -5.565   4.085 -24.014  0.00  0.00    -0.245 OA
ATOM     17  C   UNL     1      -3.017   2.787 -22.244  0.00  0.00    +0.070 C 
ENDROOT
BRANCH   8  18
ATOM     18  O   UNL     1       1.314   3.225 -25.871  0.00  0.00    -0.387 OA
ATOM     19  H   UNL     1       0.728   3.775 -26.413  0.00  0.00    +0.210 HD
ENDBRANCH   8  18
TORSDOF 1
ENDMDL
MODEL 4
REMARK VINA RESULT:    -9.253      1.839      5.214
REMARK INTER + INTRA:          -9.523
REMARK INTER:                  -9.523
REMARK INTRA:                   0.000
REMARK UNBOUND:                 0.000
REMARK  Name = C=C1C(=O)O[C@@H]2C=C(C)[C@@H](O)CC=C(C)CC[C@H]12                     ZINC001081701742
REMARK  3 active torsions:
REMARK  status: ('A' for Active; 'I' for Inactive)
REMARK    1  A    between atoms: C_8  and  C_9
REMARK    2  A    between atoms: C_10  and  O_11
REMARK    3  A    between atoms: C_14  and  C_15
REMARK                            x       y       z     vdW  Elec       q    Type
REMARK                         _______ _______ _______ _____ _____    ______ ____
ROOT
ATOM      1  C   UNL     1      -5.186   3.740 -23.285  0.00  0.00    +0.020 C 
ATOM      2  C   UNL     1      -4.068   3.237 -22.850  0.00  0.00    +0.036 C 
ATOM      3  C   UNL     1      -3.907   2.585 -21.738  0.00  0.00    +0.336 C 
ATOM      4  O   UNL     1      -2.655   2.243 -21.653  0.00  0.00    -0.453 OA
ATOM      5  C   UNL     1      -2.044   2.683 -22.712  0.00  0.00    +0.207 C 
ATOM      6  C   UNL     1      -0.805   2.605 -23.098  0.00  0.00    +0.019 C 
ATOM      7  C   UNL     1       0.068   1.990 -22.357  0.00  0.00    -0.045 C 
ATOM      8  C   UNL     1       1.307   1.910 -22.741  0.00  0.00    +0.144 C 
ATOM      9  C   UNL     1       1.673   2.446 -23.868  0.00  0.00    +0.063 C 
ATOM     10  C   UNL     1       0.801   3.060 -24.609  0.00  0.00    -0.025 C 
ATOM     11  C   UNL     1      -0.438   3.139 -24.224  0.00  0.00    -0.076 C 
ATOM     12  C   UNL     1      -1.311   3.754 -24.965  0.00  0.00    +0.031 C 
ATOM     13  C   UNL     1      -2.551   3.833 -24.578  0.00  0.00    +0.016 C 
ATOM     14  C   UNL     1      -0.073   3.675 -25.350  0.00  0.00    +0.039 C 
ATOM     15  C   UNL     1      -0.298   1.454 -21.229  0.00  0.00    +0.041 C 
ATOM     16  O   UNL     1      -4.832   2.322 -20.865  0.00  0.00    -0.245 OA
ATOM     17  C   UNL     1      -2.917   3.298 -23.453  0.00  0.00    +0.070 C 
ENDROOT
BRANCH   8  18
ATOM     18  O   UNL     1       2.181   1.295 -22.000  0.00  0.00    -0.387 OA
ATOM     19  H   UNL     1       2.204   0.356 -22.238  0.00  0.00    +0.210 HD
ENDBRANCH   8  18
TORSDOF 1
ENDMDL
MODEL 5
REMARK VINA RESULT:    -8.514      3.614      7.302
REMARK INTER + INTRA:          -8.763
REMARK INTER:                  -8.763
REMARK INTRA:                   0.000
REMARK UNBOUND:                 0.000
REMARK  Name = C=C1C(=O)O[C@@H]2C=C(C)[C@@H](O)CC=C(C)CC[C@H]12                     ZINC001081701742
REMARK  3 active torsions:
REMARK  status: ('A' for Active; 'I' for Inactive)
REMARK    1  A    between atoms: C_8  and  C_9
REMARK    2  A    between atoms: C_10  and  O_11
REMARK    3  A    between atoms: C_14  and  C_15
REMARK                            x       y       z     vdW  Elec       q    Type
REMARK                         _______ _______ _______ _____ _____    ______ ____
ROOT
ATOM      1  C   UNL     1      -0.674   4.464 -23.725  0.00  0.00    +0.020 C 
ATOM      2  C   UNL     1       0.243   3.585 -23.446  0.00  0.00    +0.036 C 
ATOM      3  C   UNL     1       0.048   2.315 -23.253  0.00  0.00    +0.336 C 
ATOM      4  O   UNL     1       1.201   1.768 -22.999  0.00  0.00    -0.453 OA
ATOM      5  C   UNL     1       2.106   2.700 -23.035  0.00  0.00    +0.207 C 
ATOM      6  C   UNL     1       3.392   2.672 -22.851  0.00  0.00    +0.019 C 
ATOM      7  C   UNL     1       3.984   1.548 -22.575  0.00  0.00    -0.045 C 
ATOM      8  C   UNL     1       5.270   1.517 -22.392  0.00  0.00    +0.144 C 
ATOM      9  C   UNL     1       5.965   2.612 -22.484  0.00  0.00    +0.063 C 
ATOM     10  C   UNL     1       5.375   3.735 -22.760  0.00  0.00    -0.025 C 
ATOM     11  C   UNL     1       4.088   3.765 -22.944  0.00  0.00    -0.076 C 
ATOM     12  C   UNL     1       3.496   4.889 -23.220  0.00  0.00    +0.031 C 
ATOM     13  C   UNL     1       2.209   4.918 -23.404  0.00  0.00    +0.016 C 
ATOM     14  C   UNL     1       4.782   4.860 -23.037  0.00  0.00    +0.039 C 
ATOM     15  C   UNL     1       3.288   0.452 -22.482  0.00  0.00    +0.041 C 
ATOM     16  O   UNL     1      -1.095   1.700 -23.305  0.00  0.00    -0.245 OA
ATOM     17  C   UNL     1       1.514   3.824 -23.311  0.00  0.00    +0.070 C 
ENDROOT
BRANCH   8  18
ATOM     18  O   UNL     1       5.862   0.393 -22.115  0.00  0.00    -0.387 OA
ATOM     19  H   UNL     1       6.429   0.508 -21.337  0.00  0.00    +0.210 HD
ENDBRANCH   8  18
TORSDOF 1
ENDMDL
MODEL 6
REMARK VINA RESULT:    -8.490      1.724      5.523
REMARK INTER + INTRA:          -8.738
REMARK INTER:                  -8.738
REMARK INTRA:                   0.000
REMARK UNBOUND:                 0.000
REMARK  Name = C=C1C(=O)O[C@@H]2C=C(C)[C@@H](O)CC=C(C)CC[C@H]12                     ZINC001081701742
REMARK  3 active torsions:
REMARK  status: ('A' for Active; 'I' for Inactive)
REMARK    1  A    between atoms: C_8  and  C_9
REMARK    2  A    between atoms: C_10  and  O_11
REMARK    3  A    between atoms: C_14  and  C_15
REMARK                            x       y       z     vdW  Elec       q    Type
REMARK                         _______ _______ _______ _____ _____    ______ ____
ROOT
ATOM      1  C   UNL     1      -3.265   4.057 -26.411  0.00  0.00    +0.020 C 
ATOM      2  C   UNL     1      -2.830   3.581 -25.282  0.00  0.00    +0.036 C 
ATOM      3  C   UNL     1      -3.558   3.279 -24.249  0.00  0.00    +0.336 C 
ATOM      4  O   UNL     1      -2.767   2.835 -23.317  0.00  0.00    -0.453 OA
ATOM      5  C   UNL     1      -1.551   2.862 -23.774  0.00  0.00    +0.207 C 
ATOM      6  C   UNL     1      -0.414   2.527 -23.243  0.00  0.00    +0.019 C 
ATOM      7  C   UNL     1      -0.375   2.065 -22.028  0.00  0.00    -0.045 C 
ATOM      8  C   UNL     1       0.761   1.729 -21.494  0.00  0.00    +0.144 C 
ATOM      9  C   UNL     1       1.861   1.855 -22.176  0.00  0.00    +0.063 C 
ATOM     10  C   UNL     1       1.824   2.315 -23.390  0.00  0.00    -0.025 C 
ATOM     11  C   UNL     1       0.686   2.651 -23.923  0.00  0.00    -0.076 C 
ATOM     12  C   UNL     1       0.648   3.112 -25.138  0.00  0.00    +0.031 C 
ATOM     13  C   UNL     1      -0.490   3.448 -25.670  0.00  0.00    +0.016 C 
ATOM     14  C   UNL     1       1.785   2.777 -24.606  0.00  0.00    +0.039 C 
ATOM     15  C   UNL     1      -1.476   1.940 -21.345  0.00  0.00    +0.041 C 
ATOM     16  O   UNL     1      -4.849   3.401 -24.162  0.00  0.00    -0.245 OA
ATOM     17  C   UNL     1      -1.589   3.323 -24.989  0.00  0.00    +0.070 C 
ENDROOT
BRANCH   8  18
ATOM     18  O   UNL     1       0.799   1.268 -20.279  0.00  0.00    -0.387 OA
ATOM     19  H   UNL     1       0.788   0.299 -20.300  0.00  0.00    +0.210 HD
ENDBRANCH   8  18
TORSDOF 1
ENDMDL
MODEL 7
REMARK VINA RESULT:    -8.445      1.749      2.819
REMARK INTER + INTRA:          -8.692
REMARK INTER:                  -8.692
REMARK INTRA:                   0.000
REMARK UNBOUND:                 0.000
REMARK  Name = C=C1C(=O)O[C@@H]2C=C(C)[C@@H](O)CC=C(C)CC[C@H]12                     ZINC001081701742
REMARK  3 active torsions:
REMARK  status: ('A' for Active; 'I' for Inactive)
REMARK    1  A    between atoms: C_8  and  C_9
REMARK    2  A    between atoms: C_10  and  O_11
REMARK    3  A    between atoms: C_14  and  C_15
REMARK                            x       y       z     vdW  Elec       q    Type
REMARK                         _______ _______ _______ _____ _____    ______ ____
ROOT
ATOM      1  C   UNL     1       3.658   1.317 -21.607  0.00  0.00    +0.020 C 
ATOM      2  C   UNL     1       2.793   1.831 -22.431  0.00  0.00    +0.036 C 
ATOM      3  C   UNL     1       3.061   2.365 -23.585  0.00  0.00    +0.336 C 
ATOM      4  O   UNL     1       1.941   2.764 -24.111  0.00  0.00    -0.453 OA
ATOM      5  C   UNL     1       0.982   2.477 -23.283  0.00  0.00    +0.207 C 
ATOM      6  C   UNL     1      -0.303   2.666 -23.341  0.00  0.00    +0.019 C 
ATOM      7  C   UNL     1      -0.829   3.243 -24.380  0.00  0.00    -0.045 C 
ATOM      8  C   UNL     1      -2.113   3.433 -24.439  0.00  0.00    +0.144 C 
ATOM      9  C   UNL     1      -2.873   3.044 -23.457  0.00  0.00    +0.063 C 
ATOM     10  C   UNL     1      -2.348   2.468 -22.418  0.00  0.00    -0.025 C 
ATOM     11  C   UNL     1      -1.063   2.278 -22.360  0.00  0.00    -0.076 C 
ATOM     12  C   UNL     1      -0.537   1.701 -21.321  0.00  0.00    +0.031 C 
ATOM     13  C   UNL     1       0.749   1.512 -21.264  0.00  0.00    +0.016 C 
ATOM     14  C   UNL     1      -1.821   1.890 -21.378  0.00  0.00    +0.039 C 
ATOM     15  C   UNL     1      -0.069   3.631 -25.362  0.00  0.00    +0.041 C 
ATOM     16  O   UNL     1       4.240   2.480 -24.118  0.00  0.00    -0.245 OA
ATOM     17  C   UNL     1       1.508   1.900 -22.244  0.00  0.00    +0.070 C 
ENDROOT
BRANCH   8  18
ATOM     18  O   UNL     1      -2.639   4.010 -25.478  0.00  0.00    -0.387 OA
ATOM     19  H   UNL     1      -3.040   4.852 -25.213  0.00  0.00    +0.210 HD
ENDBRANCH   8  18
TORSDOF 1
ENDMDL
MODEL 8
REMARK VINA RESULT:    -8.375      1.988      5.827
REMARK INTER + INTRA:          -8.620
REMARK INTER:                  -8.620
REMARK INTRA:                   0.000
REMARK UNBOUND:                 0.000
REMARK  Name = C=C1C(=O)O[C@@H]2C=C(C)[C@@H](O)CC=C(C)CC[C@H]12                     ZINC001081701742
REMARK  3 active torsions:
REMARK  status: ('A' for Active; 'I' for Inactive)
REMARK    1  A    between atoms: C_8  and  C_9
REMARK    2  A    between atoms: C_10  and  O_11
REMARK    3  A    between atoms: C_14  and  C_15
REMARK                            x       y       z     vdW  Elec       q    Type
REMARK                         _______ _______ _______ _____ _____    ______ ____
ROOT
ATOM      1  C   UNL     1      -3.438   3.729 -24.404  0.00  0.00    +0.020 C 
ATOM      2  C   UNL     1      -2.568   3.216 -23.584  0.00  0.00    +0.036 C 
ATOM      3  C   UNL     1      -2.828   2.706 -22.418  0.00  0.00    +0.336 C 
ATOM      4  O   UNL     1      -1.707   2.298 -21.901  0.00  0.00    -0.453 OA
ATOM      5  C   UNL     1      -0.755   2.556 -22.747  0.00  0.00    +0.207 C 
ATOM      6  C   UNL     1       0.527   2.348 -22.705  0.00  0.00    +0.019 C 
ATOM      7  C   UNL     1       1.059   1.781 -21.663  0.00  0.00    -0.045 C 
ATOM      8  C   UNL     1       2.341   1.572 -21.619  0.00  0.00    +0.144 C 
ATOM      9  C   UNL     1       3.092   1.931 -22.618  0.00  0.00    +0.063 C 
ATOM     10  C   UNL     1       2.561   2.499 -23.659  0.00  0.00    -0.025 C 
ATOM     11  C   UNL     1       1.279   2.707 -23.702  0.00  0.00    -0.076 C 
ATOM     12  C   UNL     1       0.747   3.275 -24.743  0.00  0.00    +0.031 C 
ATOM     13  C   UNL     1      -0.537   3.483 -24.786  0.00  0.00    +0.016 C 
ATOM     14  C   UNL     1       2.029   3.067 -24.701  0.00  0.00    +0.039 C 
ATOM     15  C   UNL     1       0.307   1.421 -20.664  0.00  0.00    +0.041 C 
ATOM     16  O   UNL     1      -4.001   2.619 -21.866  0.00  0.00    -0.245 OA
ATOM     17  C   UNL     1      -1.287   3.124 -23.788  0.00  0.00    +0.070 C 
ENDROOT
BRANCH   8  18
ATOM     18  O   UNL     1       2.873   1.004 -20.578  0.00  0.00    -0.387 OA
ATOM     19  H   UNL     1       3.599   0.427 -20.859  0.00  0.00    +0.210 HD
ENDBRANCH   8  18
TORSDOF 1
ENDMDL
MODEL 9
REMARK VINA RESULT:    -7.992      2.254      5.568
REMARK INTER + INTRA:          -8.225
REMARK INTER:                  -8.225
REMARK INTRA:                   0.000
REMARK UNBOUND:                 0.000
REMARK  Name = C=C1C(=O)O[C@@H]2C=C(C)[C@@H](O)CC=C(C)CC[C@H]12                     ZINC001081701742
REMARK  3 active torsions:
REMARK  status: ('A' for Active; 'I' for Inactive)
REMARK    1  A    between atoms: C_8  and  C_9
REMARK    2  A    between atoms: C_10  and  O_11
REMARK    3  A    between atoms: C_14  and  C_15
REMARK                            x       y       z     vdW  Elec       q    Type
REMARK                         _______ _______ _______ _____ _____    ______ ____
ROOT
ATOM      1  C   UNL     1      -3.207   2.645 -22.887  0.00  0.00    +0.020 C 
ATOM      2  C   UNL     1      -2.039   3.161 -23.130  0.00  0.00    +0.036 C 
ATOM      3  C   UNL     1      -1.807   4.225 -23.840  0.00  0.00    +0.336 C 
ATOM      4  O   UNL     1      -0.522   4.424 -23.853  0.00  0.00    -0.453 OA
ATOM      5  C   UNL     1       0.040   3.485 -23.152  0.00  0.00    +0.207 C 
ATOM      6  C   UNL     1       1.282   3.239 -22.863  0.00  0.00    +0.019 C 
ATOM      7  C   UNL     1       2.220   4.021 -23.310  0.00  0.00    -0.045 C 
ATOM      8  C   UNL     1       3.464   3.777 -23.022  0.00  0.00    +0.144 C 
ATOM      9  C   UNL     1       3.770   2.750 -22.286  0.00  0.00    +0.063 C 
ATOM     10  C   UNL     1       2.834   1.968 -21.838  0.00  0.00    -0.025 C 
ATOM     11  C   UNL     1       1.590   2.213 -22.127  0.00  0.00    -0.076 C 
ATOM     12  C   UNL     1       0.653   1.432 -21.680  0.00  0.00    +0.031 C 
ATOM     13  C   UNL     1      -0.592   1.678 -21.969  0.00  0.00    +0.016 C 
ATOM     14  C   UNL     1       1.895   1.186 -21.391  0.00  0.00    +0.039 C 
ATOM     15  C   UNL     1       1.913   5.048 -24.047  0.00  0.00    +0.041 C 
ATOM     16  O   UNL     1      -2.700   4.959 -24.431  0.00  0.00    -0.245 OA
ATOM     17  C   UNL     1      -0.898   2.703 -22.705  0.00  0.00    +0.070 C 
ENDROOT
BRANCH   8  18
ATOM     18  O   UNL     1       4.401   4.558 -23.469  0.00  0.00    -0.387 OA
ATOM     19  H   UNL     1       4.690   4.251 -24.342  0.00  0.00    +0.210 HD
ENDBRANCH   8  18
TORSDOF 1
ENDMDL
