MODEL 1
REMARK VINA RESULT:    -9.261      0.000      0.000
REMARK INTER + INTRA:         -15.120
REMARK INTER:                 -13.557
REMARK INTRA:                  -1.562
REMARK UNBOUND:                -0.987
REMARK  Name = ZINC000002048919
REMARK  10 active torsions:
REMARK  status: ('A' for Active; 'I' for Inactive)
REMARK    1  A    between atoms: C_1  and  C_2
REMARK    2  A    between atoms: C_2  and  C_3
REMARK    3  A    between atoms: C_3  and  C_4
REMARK    4  A    between atoms: C_4  and  C_5
REMARK    5  A    between atoms: C_5  and  C_6
REMARK    6  A    between atoms: C_6  and  C_7
REMARK    7  A    between atoms: C_7  and  C_8
REMARK    8  A    between atoms: C_8  and  C_9
REMARK    9  A    between atoms: C_9  and  N_10
REMARK   10  A    between atoms: CA_20  and  C_21
REMARK                            x       y       z     vdW  Elec       q    Type
REMARK                         _______ _______ _______ _____ _____    ______ ____
ROOT
ATOM      1  N   UNL     1      -0.357   2.287 -22.198  0.00  0.00    -0.339 N 
ATOM      2  C   UNL     1       0.796   1.985 -21.676  0.00  0.00    +0.068 A 
ATOM      3  C   UNL     1       1.724   2.343 -22.511  0.00  0.00    -0.008 A 
ATOM      4  C   UNL     1       2.972   2.146 -22.220  0.00  0.00    +0.098 C 
ATOM      5  CA  UNL     1       3.300   1.589 -21.090  0.00  0.00    +0.114 C 
ATOM      6  N   UNL     1       2.372   1.231 -20.254  0.00  0.00    +0.238 N 
ATOM      7  H1  UNL     1       2.450   0.215 -20.242  0.00  0.00    +0.202 HD
ATOM      8  H2  UNL     1       2.551   1.730 -19.383  0.00  0.00    +0.202 HD
ATOM      9  C   UNL     1       1.145   2.868 -23.552  0.00  0.00    +0.004 A 
ATOM     10  C   UNL     1       1.623   3.373 -24.651  0.00  0.00    +0.010 A 
ATOM     11  C   UNL     1       0.814   3.843 -25.554  0.00  0.00    +0.001 A 
ATOM     12  C   UNL     1      -0.471   3.808 -25.359  0.00  0.00    +0.002 A 
ATOM     13  C   UNL     1      -0.947   3.303 -24.261  0.00  0.00    +0.026 A 
ATOM     14  C   UNL     1       1.119   1.427 -20.544  0.00  0.00    +0.185 C 
ATOM     15  C   UNL     1      -0.141   2.833 -23.356  0.00  0.00    +0.050 A 
ENDROOT
BRANCH   5  16
ATOM     16  C   UNL     1       4.551   1.393 -20.798  0.00  0.00    +0.090 C 
ATOM     17  OXT UNL     1       5.359   2.404 -20.684  0.00  0.00    -0.544 OA
ATOM     18  O   UNL     1       4.994   0.184 -20.621  0.00  0.00    -0.544 OA
ENDBRANCH   5  16
BRANCH   1  19
ATOM     19  C   UNL     1      -1.519   2.080 -21.655  0.00  0.00    +0.122 C 
BRANCH  19  20
ATOM     20  C   UNL     1      -2.069   3.003 -20.923  0.00  0.00    +0.022 C 
BRANCH  20  21
ATOM     21  C   UNL     1      -3.363   3.119 -20.887  0.00  0.00    +0.002 C 
BRANCH  21  22
ATOM     22  C   UNL     1      -4.075   2.784 -21.921  0.00  0.00    +0.000 C 
BRANCH  22  23
ATOM     23  C   UNL     1      -5.219   3.363 -22.139  0.00  0.00    +0.000 C 
BRANCH  23  24
ATOM     24  C   UNL     1      -5.533   3.748 -23.341  0.00  0.00    -0.000 C 
BRANCH  24  25
ATOM     25  C   UNL     1      -4.598   4.068 -24.186  0.00  0.00    -0.000 C 
BRANCH  25  27
ATOM     26  C   UNL     1      -4.074   2.973 -26.083  0.00  0.00    +0.004 C 
ATOM     27  C   UNL     1      -4.777   3.872 -25.459  0.00  0.00    -0.003 C 
ENDBRANCH  25  27
ENDBRANCH  24  25
ENDBRANCH  23  24
ENDBRANCH  22  23
ENDBRANCH  21  22
ENDBRANCH  20  21
ENDBRANCH  19  20
ENDBRANCH   1  19
TORSDOF 9
ENDMDL
MODEL 2
REMARK VINA RESULT:    -8.309      3.031      5.218
REMARK INTER + INTRA:         -13.668
REMARK INTER:                 -11.404
REMARK INTRA:                  -2.264
REMARK UNBOUND:                -0.987
REMARK  Name = ZINC000002048919
REMARK  10 active torsions:
REMARK  status: ('A' for Active; 'I' for Inactive)
REMARK    1  A    between atoms: C_1  and  C_2
REMARK    2  A    between atoms: C_2  and  C_3
REMARK    3  A    between atoms: C_3  and  C_4
REMARK    4  A    between atoms: C_4  and  C_5
REMARK    5  A    between atoms: C_5  and  C_6
REMARK    6  A    between atoms: C_6  and  C_7
REMARK    7  A    between atoms: C_7  and  C_8
REMARK    8  A    between atoms: C_8  and  C_9
REMARK    9  A    between atoms: C_9  and  N_10
REMARK   10  A    between atoms: CA_20  and  C_21
REMARK                            x       y       z     vdW  Elec       q    Type
REMARK                         _______ _______ _______ _____ _____    ______ ____
ROOT
ATOM      1  N   UNL     1       2.907   3.184 -24.093  0.00  0.00    -0.339 N 
ATOM      2  C   UNL     1       3.478   4.206 -23.527  0.00  0.00    +0.068 A 
ATOM      3  C   UNL     1       2.565   5.098 -23.286  0.00  0.00    -0.008 A 
ATOM      4  C   UNL     1       2.885   6.220 -22.720  0.00  0.00    +0.098 C 
ATOM      5  CA  UNL     1       4.122   6.457 -22.391  0.00  0.00    +0.114 C 
ATOM      6  N   UNL     1       5.036   5.565 -22.631  0.00  0.00    +0.238 N 
ATOM      7  H1  UNL     1       5.624   6.018 -23.329  0.00  0.00    +0.202 HD
ATOM      8  H2  UNL     1       5.461   5.330 -21.735  0.00  0.00    +0.202 HD
ATOM      9  C   UNL     1       1.426   4.627 -23.704  0.00  0.00    +0.004 A 
ATOM     10  C   UNL     1       0.224   5.123 -23.695  0.00  0.00    +0.010 A 
ATOM     11  C   UNL     1      -0.765   4.435 -24.185  0.00  0.00    +0.001 A 
ATOM     12  C   UNL     1      -0.553   3.254 -24.682  0.00  0.00    +0.002 A 
ATOM     13  C   UNL     1       0.649   2.759 -24.691  0.00  0.00    +0.026 A 
ATOM     14  C   UNL     1       4.717   4.439 -23.199  0.00  0.00    +0.185 C 
ATOM     15  C   UNL     1       1.639   3.445 -24.202  0.00  0.00    +0.050 A 
ENDROOT
BRANCH   5  16
ATOM     16  C   UNL     1       4.442   7.581 -21.824  0.00  0.00    +0.090 C 
ATOM     17  OXT UNL     1       5.132   7.582 -20.723  0.00  0.00    -0.544 OA
ATOM     18  O   UNL     1       4.071   8.707 -22.358  0.00  0.00    -0.544 OA
ENDBRANCH   5  16
BRANCH   1  19
ATOM     19  C   UNL     1       3.500   2.095 -24.481  0.00  0.00    +0.122 C 
BRANCH  19  20
ATOM     20  C   UNL     1       3.848   1.198 -23.606  0.00  0.00    +0.022 C 
BRANCH  20  21
ATOM     21  C   UNL     1       2.948   0.637 -22.856  0.00  0.00    +0.002 C 
BRANCH  21  22
ATOM     22  C   UNL     1       2.920   0.883 -21.580  0.00  0.00    +0.000 C 
BRANCH  22  23
ATOM     23  C   UNL     1       1.895   1.487 -21.055  0.00  0.00    +0.000 C 
BRANCH  23  24
ATOM     24  C   UNL     1       0.708   1.302 -21.552  0.00  0.00    -0.000 C 
BRANCH  24  25
ATOM     25  C   UNL     1      -0.323   1.871 -20.999  0.00  0.00    -0.000 C 
BRANCH  25  27
ATOM     26  C   UNL     1      -2.350   2.803 -21.308  0.00  0.00    +0.004 C 
ATOM     27  C   UNL     1      -1.458   1.913 -21.632  0.00  0.00    -0.003 C 
ENDBRANCH  25  27
ENDBRANCH  24  25
ENDBRANCH  23  24
ENDBRANCH  22  23
ENDBRANCH  21  22
ENDBRANCH  20  21
ENDBRANCH  19  20
ENDBRANCH   1  19
TORSDOF 9
ENDMDL
MODEL 3
REMARK VINA RESULT:    -8.080      3.518      6.724
REMARK INTER + INTRA:         -13.318
REMARK INTER:                 -11.622
REMARK INTRA:                  -1.696
REMARK UNBOUND:                -0.987
REMARK  Name = ZINC000002048919
REMARK  10 active torsions:
REMARK  status: ('A' for Active; 'I' for Inactive)
REMARK    1  A    between atoms: C_1  and  C_2
REMARK    2  A    between atoms: C_2  and  C_3
REMARK    3  A    between atoms: C_3  and  C_4
REMARK    4  A    between atoms: C_4  and  C_5
REMARK    5  A    between atoms: C_5  and  C_6
REMARK    6  A    between atoms: C_6  and  C_7
REMARK    7  A    between atoms: C_7  and  C_8
REMARK    8  A    between atoms: C_8  and  C_9
REMARK    9  A    between atoms: C_9  and  N_10
REMARK   10  A    between atoms: CA_20  and  C_21
REMARK                            x       y       z     vdW  Elec       q    Type
REMARK                         _______ _______ _______ _____ _____    ______ ____
ROOT
ATOM      1  N   UNL     1      -0.129   1.952 -22.531  0.00  0.00    -0.339 N 
ATOM      2  C   UNL     1      -1.394   2.216 -22.385  0.00  0.00    +0.068 A 
ATOM      3  C   UNL     1      -1.778   2.929 -23.400  0.00  0.00    -0.008 A 
ATOM      4  C   UNL     1      -3.011   3.324 -23.489  0.00  0.00    +0.098 C 
ATOM      5  CA  UNL     1      -3.867   3.007 -22.561  0.00  0.00    +0.114 C 
ATOM      6  N   UNL     1      -3.483   2.293 -21.545  0.00  0.00    +0.238 N 
ATOM      7  H1  UNL     1      -3.578   2.937 -20.760  0.00  0.00    +0.202 HD
ATOM      8  H2  UNL     1      -4.061   1.453 -21.540  0.00  0.00    +0.202 HD
ATOM      9  C   UNL     1      -0.749   3.107 -24.176  0.00  0.00    +0.004 A 
ATOM     10  C   UNL     1      -0.609   3.741 -25.303  0.00  0.00    +0.010 A 
ATOM     11  C   UNL     1       0.551   3.770 -25.890  0.00  0.00    +0.001 A 
ATOM     12  C   UNL     1       1.569   3.167 -25.353  0.00  0.00    +0.002 A 
ATOM     13  C   UNL     1       1.427   2.534 -24.227  0.00  0.00    +0.026 A 
ATOM     14  C   UNL     1      -2.248   1.896 -21.454  0.00  0.00    +0.185 C 
ATOM     15  C   UNL     1       0.269   2.503 -23.638  0.00  0.00    +0.050 A 
ENDROOT
BRANCH   5  16
ATOM     16  C   UNL     1      -5.101   3.402 -22.651  0.00  0.00    +0.090 C 
ATOM     17  OXT UNL     1      -5.480   4.131 -23.658  0.00  0.00    -0.544 OA
ATOM     18  O   UNL     1      -5.958   3.069 -21.731  0.00  0.00    -0.544 OA
ENDBRANCH   5  16
BRANCH   1  19
ATOM     19  C   UNL     1       0.607   1.260 -21.714  0.00  0.00    +0.122 C 
BRANCH  19  20
ATOM     20  C   UNL     1       1.440   1.863 -20.919  0.00  0.00    +0.022 C 
BRANCH  20  21
ATOM     21  C   UNL     1       2.665   1.440 -20.819  0.00  0.00    +0.002 C 
BRANCH  21  22
ATOM     22  C   UNL     1       3.142   0.615 -21.701  0.00  0.00    +0.000 C 
BRANCH  22  23
ATOM     23  C   UNL     1       4.037   1.020 -22.554  0.00  0.00    +0.000 C 
BRANCH  23  24
ATOM     24  C   UNL     1       4.722   2.099 -22.314  0.00  0.00    -0.000 C 
BRANCH  24  25
ATOM     25  C   UNL     1       5.083   2.871 -23.296  0.00  0.00    -0.000 C 
BRANCH  25  27
ATOM     26  C   UNL     1       3.834   4.708 -22.929  0.00  0.00    +0.004 C 
ATOM     27  C   UNL     1       4.988   4.162 -23.176  0.00  0.00    -0.003 C 
ENDBRANCH  25  27
ENDBRANCH  24  25
ENDBRANCH  23  24
ENDBRANCH  22  23
ENDBRANCH  21  22
ENDBRANCH  20  21
ENDBRANCH  19  20
ENDBRANCH   1  19
TORSDOF 9
ENDMDL
MODEL 4
REMARK VINA RESULT:    -7.713      3.353      6.158
REMARK INTER + INTRA:         -12.757
REMARK INTER:                 -10.713
REMARK INTRA:                  -2.045
REMARK UNBOUND:                -0.987
REMARK  Name = ZINC000002048919
REMARK  10 active torsions:
REMARK  status: ('A' for Active; 'I' for Inactive)
REMARK    1  A    between atoms: C_1  and  C_2
REMARK    2  A    between atoms: C_2  and  C_3
REMARK    3  A    between atoms: C_3  and  C_4
REMARK    4  A    between atoms: C_4  and  C_5
REMARK    5  A    between atoms: C_5  and  C_6
REMARK    6  A    between atoms: C_6  and  C_7
REMARK    7  A    between atoms: C_7  and  C_8
REMARK    8  A    between atoms: C_8  and  C_9
REMARK    9  A    between atoms: C_9  and  N_10
REMARK   10  A    between atoms: CA_20  and  C_21
REMARK                            x       y       z     vdW  Elec       q    Type
REMARK                         _______ _______ _______ _____ _____    ______ ____
ROOT
ATOM      1  N   UNL     1       3.586   3.136 -23.833  0.00  0.00    -0.339 N 
ATOM      2  C   UNL     1       2.320   3.163 -24.132  0.00  0.00    +0.068 A 
ATOM      3  C   UNL     1       1.848   4.323 -23.788  0.00  0.00    -0.008 A 
ATOM      4  C   UNL     1       0.597   4.600 -23.985  0.00  0.00    +0.098 C 
ATOM      5  CA  UNL     1      -0.191   3.718 -24.528  0.00  0.00    +0.114 C 
ATOM      6  N   UNL     1       0.281   2.557 -24.873  0.00  0.00    +0.238 N 
ATOM      7  H1  UNL     1      -0.201   1.915 -24.245  0.00  0.00    +0.202 HD
ATOM      8  H2  UNL     1       0.113   2.456 -25.873  0.00  0.00    +0.202 HD
ATOM      9  C   UNL     1       2.823   5.015 -23.274  0.00  0.00    +0.004 A 
ATOM     10  C   UNL     1       2.871   6.219 -22.785  0.00  0.00    +0.010 A 
ATOM     11  C   UNL     1       3.993   6.687 -22.324  0.00  0.00    +0.001 A 
ATOM     12  C   UNL     1       5.066   5.953 -22.352  0.00  0.00    +0.002 A 
ATOM     13  C   UNL     1       5.016   4.750 -22.841  0.00  0.00    +0.026 A 
ATOM     14  C   UNL     1       1.536   2.277 -24.676  0.00  0.00    +0.185 C 
ATOM     15  C   UNL     1       3.896   4.280 -23.303  0.00  0.00    +0.050 A 
ENDROOT
BRANCH   5  16
ATOM     16  C   UNL     1      -1.445   3.996 -24.725  0.00  0.00    +0.090 C 
ATOM     17  OXT UNL     1      -2.101   3.405 -25.678  0.00  0.00    -0.544 OA
ATOM     18  O   UNL     1      -2.043   4.868 -23.969  0.00  0.00    -0.544 OA
ENDBRANCH   5  16
BRANCH   1  19
ATOM     19  C   UNL     1       4.396   2.139 -24.029  0.00  0.00    +0.122 C 
BRANCH  19  20
ATOM     20  C   UNL     1       4.785   1.410 -23.025  0.00  0.00    +0.022 C 
BRANCH  20  21
ATOM     21  C   UNL     1       3.909   0.776 -22.305  0.00  0.00    +0.002 C 
BRANCH  21  22
ATOM     22  C   UNL     1       3.743   1.092 -21.055  0.00  0.00    +0.000 C 
BRANCH  22  23
ATOM     23  C   UNL     1       2.590   1.529 -20.641  0.00  0.00    +0.000 C 
BRANCH  23  24
ATOM     24  C   UNL     1       1.519   1.297 -21.340  0.00  0.00    -0.000 C 
BRANCH  24  25
ATOM     25  C   UNL     1       0.367   1.739 -20.929  0.00  0.00    -0.000 C 
BRANCH  25  27
ATOM     26  C   UNL     1      -1.763   2.220 -21.479  0.00  0.00    +0.004 C 
ATOM     27  C   UNL     1      -0.711   1.465 -21.602  0.00  0.00    -0.003 C 
ENDBRANCH  25  27
ENDBRANCH  24  25
ENDBRANCH  23  24
ENDBRANCH  22  23
ENDBRANCH  21  22
ENDBRANCH  20  21
ENDBRANCH  19  20
ENDBRANCH   1  19
TORSDOF 9
ENDMDL
MODEL 5
REMARK VINA RESULT:    -7.549      3.813      7.318
REMARK INTER + INTRA:         -12.507
REMARK INTER:                 -11.548
REMARK INTRA:                  -0.959
REMARK UNBOUND:                -0.987
REMARK  Name = ZINC000002048919
REMARK  10 active torsions:
REMARK  status: ('A' for Active; 'I' for Inactive)
REMARK    1  A    between atoms: C_1  and  C_2
REMARK    2  A    between atoms: C_2  and  C_3
REMARK    3  A    between atoms: C_3  and  C_4
REMARK    4  A    between atoms: C_4  and  C_5
REMARK    5  A    between atoms: C_5  and  C_6
REMARK    6  A    between atoms: C_6  and  C_7
REMARK    7  A    between atoms: C_7  and  C_8
REMARK    8  A    between atoms: C_8  and  C_9
REMARK    9  A    between atoms: C_9  and  N_10
REMARK   10  A    between atoms: CA_20  and  C_21
REMARK                            x       y       z     vdW  Elec       q    Type
REMARK                         _______ _______ _______ _____ _____    ______ ____
ROOT
ATOM      1  N   UNL     1       0.039   2.790 -24.053  0.00  0.00    -0.339 N 
ATOM      2  C   UNL     1      -1.235   3.026 -23.940  0.00  0.00    +0.068 A 
ATOM      3  C   UNL     1      -1.612   2.649 -22.756  0.00  0.00    -0.008 A 
ATOM      4  C   UNL     1      -2.851   2.781 -22.395  0.00  0.00    +0.098 C 
ATOM      5  CA  UNL     1      -3.721   3.293 -23.218  0.00  0.00    +0.114 C 
ATOM      6  N   UNL     1      -3.343   3.671 -24.403  0.00  0.00    +0.238 N 
ATOM      7  H1  UNL     1      -3.835   3.026 -25.020  0.00  0.00    +0.202 HD
ATOM      8  H2  UNL     1      -3.566   4.663 -24.480  0.00  0.00    +0.202 HD
ATOM      9  C   UNL     1      -0.570   2.178 -22.135  0.00  0.00    +0.004 A 
ATOM     10  C   UNL     1      -0.420   1.681 -20.942  0.00  0.00    +0.010 A 
ATOM     11  C   UNL     1       0.752   1.272 -20.554  0.00  0.00    +0.001 A 
ATOM     12  C   UNL     1       1.771   1.359 -21.356  0.00  0.00    +0.002 A 
ATOM     13  C   UNL     1       1.619   1.856 -22.547  0.00  0.00    +0.026 A 
ATOM     14  C   UNL     1      -2.101   3.539 -24.766  0.00  0.00    +0.185 C 
ATOM     15  C   UNL     1       0.449   2.266 -22.938  0.00  0.00    +0.050 A 
ENDROOT
BRANCH   5  16
ATOM     16  C   UNL     1      -4.961   3.425 -22.856  0.00  0.00    +0.090 C 
ATOM     17  OXT UNL     1      -5.347   3.007 -21.688  0.00  0.00    -0.544 OA
ATOM     18  O   UNL     1      -5.818   3.977 -23.664  0.00  0.00    -0.544 OA
ENDBRANCH   5  16
BRANCH   1  19
ATOM     19  C   UNL     1       0.772   3.035 -25.098  0.00  0.00    +0.122 C 
BRANCH  19  20
ATOM     20  C   UNL     1       1.725   3.917 -25.031  0.00  0.00    +0.022 C 
BRANCH  20  21
ATOM     21  C   UNL     1       1.551   5.012 -24.353  0.00  0.00    +0.002 C 
BRANCH  21  22
ATOM     22  C   UNL     1       2.377   5.325 -23.399  0.00  0.00    +0.000 C 
BRANCH  22  23
ATOM     23  C   UNL     1       3.470   4.638 -23.233  0.00  0.00    +0.000 C 
BRANCH  23  24
ATOM     24  C   UNL     1       4.567   5.240 -22.881  0.00  0.00    -0.000 C 
BRANCH  24  25
ATOM     25  C   UNL     1       5.651   4.550 -22.681  0.00  0.00    -0.000 C 
BRANCH  25  27
ATOM     26  C   UNL     1       7.166   3.651 -24.083  0.00  0.00    +0.004 C 
ATOM     27  C   UNL     1       5.993   3.620 -23.523  0.00  0.00    -0.003 C 
ENDBRANCH  25  27
ENDBRANCH  24  25
ENDBRANCH  23  24
ENDBRANCH  22  23
ENDBRANCH  21  22
ENDBRANCH  20  21
ENDBRANCH  19  20
ENDBRANCH   1  19
TORSDOF 9
ENDMDL
MODEL 6
REMARK VINA RESULT:    -7.464      3.093      4.236
REMARK INTER + INTRA:         -12.378
REMARK INTER:                 -11.473
REMARK INTRA:                  -0.905
REMARK UNBOUND:                -0.987
REMARK  Name = ZINC000002048919
REMARK  10 active torsions:
REMARK  status: ('A' for Active; 'I' for Inactive)
REMARK    1  A    between atoms: C_1  and  C_2
REMARK    2  A    between atoms: C_2  and  C_3
REMARK    3  A    between atoms: C_3  and  C_4
REMARK    4  A    between atoms: C_4  and  C_5
REMARK    5  A    between atoms: C_5  and  C_6
REMARK    6  A    between atoms: C_6  and  C_7
REMARK    7  A    between atoms: C_7  and  C_8
REMARK    8  A    between atoms: C_8  and  C_9
REMARK    9  A    between atoms: C_9  and  N_10
REMARK   10  A    between atoms: CA_20  and  C_21
REMARK                            x       y       z     vdW  Elec       q    Type
REMARK                         _______ _______ _______ _____ _____    ______ ____
ROOT
ATOM      1  N   UNL     1       2.084   4.711 -23.424  0.00  0.00    -0.339 N 
ATOM      2  C   UNL     1       3.181   5.287 -23.029  0.00  0.00    +0.068 A 
ATOM      3  C   UNL     1       4.156   4.441 -23.170  0.00  0.00    -0.008 A 
ATOM      4  C   UNL     1       5.364   4.779 -22.842  0.00  0.00    +0.098 C 
ATOM      5  CA  UNL     1       5.605   5.969 -22.371  0.00  0.00    +0.114 C 
ATOM      6  N   UNL     1       4.629   6.816 -22.231  0.00  0.00    +0.238 N 
ATOM      7  H1  UNL     1       4.571   6.937 -21.220  0.00  0.00    +0.202 HD
ATOM      8  H2  UNL     1       4.867   7.634 -22.792  0.00  0.00    +0.202 HD
ATOM      9  C   UNL     1       3.661   3.338 -23.653  0.00  0.00    +0.004 A 
ATOM     10  C   UNL     1       4.212   2.203 -23.969  0.00  0.00    +0.010 A 
ATOM     11  C   UNL     1       3.481   1.238 -24.442  0.00  0.00    +0.001 A 
ATOM     12  C   UNL     1       2.202   1.405 -24.599  0.00  0.00    +0.002 A 
ATOM     13  C   UNL     1       1.653   2.540 -24.282  0.00  0.00    +0.026 A 
ATOM     14  C   UNL     1       3.417   6.479 -22.559  0.00  0.00    +0.185 C 
ATOM     15  C   UNL     1       2.381   3.507 -23.809  0.00  0.00    +0.050 A 
ENDROOT
BRANCH   5  16
ATOM     16  C   UNL     1       6.815   6.307 -22.043  0.00  0.00    +0.090 C 
ATOM     17  OXT UNL     1       7.204   7.540 -22.174  0.00  0.00    -0.544 OA
ATOM     18  O   UNL     1       7.638   5.412 -21.583  0.00  0.00    -0.544 OA
ENDBRANCH   5  16
BRANCH   1  19
ATOM     19  C   UNL     1       0.900   5.246 -23.432  0.00  0.00    +0.122 C 
BRANCH  19  20
ATOM     20  C   UNL     1      -0.140   4.529 -23.121  0.00  0.00    +0.022 C 
BRANCH  20  21
ATOM     21  C   UNL     1      -1.275   4.737 -23.719  0.00  0.00    +0.002 C 
BRANCH  21  22
ATOM     22  C   UNL     1      -1.866   3.765 -24.348  0.00  0.00    +0.000 C 
BRANCH  22  23
ATOM     23  C   UNL     1      -2.694   2.988 -23.715  0.00  0.00    +0.000 C 
BRANCH  23  24
ATOM     24  C   UNL     1      -3.710   3.498 -23.085  0.00  0.00    -0.000 C 
BRANCH  24  25
ATOM     25  C   UNL     1      -4.111   2.971 -21.965  0.00  0.00    -0.000 C 
BRANCH  25  27
ATOM     26  C   UNL     1      -3.064   3.811 -20.157  0.00  0.00    +0.004 C 
ATOM     27  C   UNL     1      -3.275   2.826 -20.980  0.00  0.00    -0.003 C 
ENDBRANCH  25  27
ENDBRANCH  24  25
ENDBRANCH  23  24
ENDBRANCH  22  23
ENDBRANCH  21  22
ENDBRANCH  20  21
ENDBRANCH  19  20
ENDBRANCH   1  19
TORSDOF 9
ENDMDL
MODEL 7
REMARK VINA RESULT:    -7.112      2.778      4.462
REMARK INTER + INTRA:         -11.841
REMARK INTER:                 -10.923
REMARK INTRA:                  -0.918
REMARK UNBOUND:                -0.987
REMARK  Name = ZINC000002048919
REMARK  10 active torsions:
REMARK  status: ('A' for Active; 'I' for Inactive)
REMARK    1  A    between atoms: C_1  and  C_2
REMARK    2  A    between atoms: C_2  and  C_3
REMARK    3  A    between atoms: C_3  and  C_4
REMARK    4  A    between atoms: C_4  and  C_5
REMARK    5  A    between atoms: C_5  and  C_6
REMARK    6  A    between atoms: C_6  and  C_7
REMARK    7  A    between atoms: C_7  and  C_8
REMARK    8  A    between atoms: C_8  and  C_9
REMARK    9  A    between atoms: C_9  and  N_10
REMARK   10  A    between atoms: CA_20  and  C_21
REMARK                            x       y       z     vdW  Elec       q    Type
REMARK                         _______ _______ _______ _____ _____    ______ ____
ROOT
ATOM      1  N   UNL     1       3.581   2.398 -23.287  0.00  0.00    -0.339 N 
ATOM      2  C   UNL     1       4.741   2.770 -22.832  0.00  0.00    +0.068 A 
ATOM      3  C   UNL     1       4.727   4.061 -22.692  0.00  0.00    -0.008 A 
ATOM      4  C   UNL     1       5.777   4.679 -22.249  0.00  0.00    +0.098 C 
ATOM      5  CA  UNL     1       6.850   4.009 -21.942  0.00  0.00    +0.114 C 
ATOM      6  N   UNL     1       6.865   2.717 -22.081  0.00  0.00    +0.238 N 
ATOM      7  H1  UNL     1       7.550   2.571 -22.822  0.00  0.00    +0.202 HD
ATOM      8  H2  UNL     1       7.070   2.324 -21.163  0.00  0.00    +0.202 HD
ATOM      9  C   UNL     1       3.555   4.489 -23.062  0.00  0.00    +0.004 A 
ATOM     10  C   UNL     1       3.041   5.683 -23.111  0.00  0.00    +0.010 A 
ATOM     11  C   UNL     1       1.821   5.847 -23.527  0.00  0.00    +0.001 A 
ATOM     12  C   UNL     1       1.114   4.820 -23.894  0.00  0.00    +0.002 A 
ATOM     13  C   UNL     1       1.628   3.628 -23.844  0.00  0.00    +0.026 A 
ATOM     14  C   UNL     1       5.813   2.095 -22.526  0.00  0.00    +0.185 C 
ATOM     15  C   UNL     1       2.848   3.461 -23.429  0.00  0.00    +0.050 A 
ENDROOT
BRANCH   5  16
ATOM     16  C   UNL     1       7.901   4.629 -21.498  0.00  0.00    +0.090 C 
ATOM     17  OXT UNL     1       8.708   5.220 -22.328  0.00  0.00    -0.544 OA
ATOM     18  O   UNL     1       8.147   4.659 -20.221  0.00  0.00    -0.544 OA
ENDBRANCH   5  16
BRANCH   1  19
ATOM     19  C   UNL     1       3.219   1.179 -23.552  0.00  0.00    +0.122 C 
BRANCH  19  20
ATOM     20  C   UNL     1       2.693   0.439 -22.621  0.00  0.00    +0.022 C 
BRANCH  20  21
ATOM     21  C   UNL     1       1.910   0.973 -21.732  0.00  0.00    +0.002 C 
BRANCH  21  22
ATOM     22  C   UNL     1       0.630   1.037 -21.948  0.00  0.00    +0.000 C 
BRANCH  22  23
ATOM     23  C   UNL     1      -0.146   1.632 -21.090  0.00  0.00    +0.000 C 
BRANCH  23  24
ATOM     24  C   UNL     1      -1.350   1.980 -21.436  0.00  0.00    -0.000 C 
BRANCH  24  25
ATOM     25  C   UNL     1      -1.564   3.154 -21.951  0.00  0.00    -0.000 C 
BRANCH  25  27
ATOM     26  C   UNL     1      -3.089   3.578 -20.349  0.00  0.00    +0.004 C 
ATOM     27  C   UNL     1      -2.453   3.943 -21.423  0.00  0.00    -0.003 C 
ENDBRANCH  25  27
ENDBRANCH  24  25
ENDBRANCH  23  24
ENDBRANCH  22  23
ENDBRANCH  21  22
ENDBRANCH  20  21
ENDBRANCH  19  20
ENDBRANCH   1  19
TORSDOF 9
ENDMDL
MODEL 8
REMARK VINA RESULT:    -6.940      3.685      7.585
REMARK INTER + INTRA:         -11.578
REMARK INTER:                 -10.072
REMARK INTRA:                  -1.506
REMARK UNBOUND:                -0.987
REMARK  Name = ZINC000002048919
REMARK  10 active torsions:
REMARK  status: ('A' for Active; 'I' for Inactive)
REMARK    1  A    between atoms: C_1  and  C_2
REMARK    2  A    between atoms: C_2  and  C_3
REMARK    3  A    between atoms: C_3  and  C_4
REMARK    4  A    between atoms: C_4  and  C_5
REMARK    5  A    between atoms: C_5  and  C_6
REMARK    6  A    between atoms: C_6  and  C_7
REMARK    7  A    between atoms: C_7  and  C_8
REMARK    8  A    between atoms: C_8  and  C_9
REMARK    9  A    between atoms: C_9  and  N_10
REMARK   10  A    between atoms: CA_20  and  C_21
REMARK                            x       y       z     vdW  Elec       q    Type
REMARK                         _______ _______ _______ _____ _____    ______ ____
ROOT
ATOM      1  N   UNL     1       1.049   3.006 -23.786  0.00  0.00    -0.339 N 
ATOM      2  C   UNL     1       0.002   3.165 -24.541  0.00  0.00    +0.068 A 
ATOM      3  C   UNL     1      -1.030   2.698 -23.905  0.00  0.00    -0.008 A 
ATOM      4  C   UNL     1      -2.205   2.740 -24.451  0.00  0.00    +0.098 C 
ATOM      5  CA  UNL     1      -2.356   3.251 -25.639  0.00  0.00    +0.114 C 
ATOM      6  N   UNL     1      -1.323   3.719 -26.276  0.00  0.00    +0.238 N 
ATOM      7  H1  UNL     1      -1.234   3.085 -27.069  0.00  0.00    +0.202 HD
ATOM      8  H2  UNL     1      -1.519   4.700 -26.474  0.00  0.00    +0.202 HD
ATOM      9  C   UNL     1      -0.621   2.249 -22.754  0.00  0.00    +0.004 A 
ATOM     10  C   UNL     1      -1.253   1.691 -21.764  0.00  0.00    +0.010 A 
ATOM     11  C   UNL     1      -0.599   1.325 -20.701  0.00  0.00    +0.001 A 
ATOM     12  C   UNL     1       0.685   1.515 -20.629  0.00  0.00    +0.002 A 
ATOM     13  C   UNL     1       1.315   2.072 -21.619  0.00  0.00    +0.026 A 
ATOM     14  C   UNL     1      -0.144   3.677 -25.730  0.00  0.00    +0.185 C 
ATOM     15  C   UNL     1       0.664   2.440 -22.682  0.00  0.00    +0.050 A 
ENDROOT
BRANCH   5  16
ATOM     16  C   UNL     1      -3.533   3.294 -26.187  0.00  0.00    +0.090 C 
ATOM     17  OXT UNL     1      -3.654   3.217 -27.478  0.00  0.00    -0.544 OA
ATOM     18  O   UNL     1      -4.592   3.414 -25.441  0.00  0.00    -0.544 OA
ENDBRANCH   5  16
BRANCH   1  19
ATOM     19  C   UNL     1       2.265   3.352 -24.084  0.00  0.00    +0.122 C 
BRANCH  19  20
ATOM     20  C   UNL     1       2.673   4.563 -23.846  0.00  0.00    +0.022 C 
BRANCH  20  21
ATOM     21  C   UNL     1       3.643   4.770 -23.006  0.00  0.00    +0.002 C 
BRANCH  21  22
ATOM     22  C   UNL     1       4.853   4.401 -23.305  0.00  0.00    +0.000 C 
BRANCH  22  23
ATOM     23  C   UNL     1       5.628   3.905 -22.387  0.00  0.00    +0.000 C 
BRANCH  23  24
ATOM     24  C   UNL     1       5.939   2.643 -22.413  0.00  0.00    -0.000 C 
BRANCH  24  25
ATOM     25  C   UNL     1       5.567   1.862 -21.441  0.00  0.00    -0.000 C 
BRANCH  25  27
ATOM     26  C   UNL     1       4.202   0.203 -20.765  0.00  0.00    +0.004 C 
ATOM     27  C   UNL     1       4.903   0.774 -21.700  0.00  0.00    -0.003 C 
ENDBRANCH  25  27
ENDBRANCH  24  25
ENDBRANCH  23  24
ENDBRANCH  22  23
ENDBRANCH  21  22
ENDBRANCH  20  21
ENDBRANCH  19  20
ENDBRANCH   1  19
TORSDOF 9
ENDMDL
MODEL 9
REMARK VINA RESULT:    -6.813      2.374      4.704
REMARK INTER + INTRA:         -11.384
REMARK INTER:                 -10.397
REMARK INTRA:                  -0.987
REMARK UNBOUND:                -0.987
REMARK  Name = ZINC000002048919
REMARK  10 active torsions:
REMARK  status: ('A' for Active; 'I' for Inactive)
REMARK    1  A    between atoms: C_1  and  C_2
REMARK    2  A    between atoms: C_2  and  C_3
REMARK    3  A    between atoms: C_3  and  C_4
REMARK    4  A    between atoms: C_4  and  C_5
REMARK    5  A    between atoms: C_5  and  C_6
REMARK    6  A    between atoms: C_6  and  C_7
REMARK    7  A    between atoms: C_7  and  C_8
REMARK    8  A    between atoms: C_8  and  C_9
REMARK    9  A    between atoms: C_9  and  N_10
REMARK   10  A    between atoms: CA_20  and  C_21
REMARK                            x       y       z     vdW  Elec       q    Type
REMARK                         _______ _______ _______ _____ _____    ______ ____
ROOT
ATOM      1  N   UNL     1      -3.383   4.210 -23.322  0.00  0.00    -0.339 N 
ATOM      2  C   UNL     1      -2.106   4.454 -23.273  0.00  0.00    +0.068 A 
ATOM      3  C   UNL     1      -1.599   4.190 -24.438  0.00  0.00    -0.008 A 
ATOM      4  C   UNL     1      -0.330   4.353 -24.648  0.00  0.00    +0.098 C 
ATOM      5  CA  UNL     1       0.441   4.784 -23.691  0.00  0.00    +0.114 C 
ATOM      6  N   UNL     1      -0.067   5.049 -22.524  0.00  0.00    +0.238 N 
ATOM      7  H1  UNL     1       0.361   4.347 -21.920  0.00  0.00    +0.202 HD
ATOM      8  H2  UNL     1       0.138   6.028 -22.330  0.00  0.00    +0.202 HD
ATOM      9  C   UNL     1      -2.563   3.781 -25.211  0.00  0.00    +0.004 A 
ATOM     10  C   UNL     1      -2.579   3.399 -26.454  0.00  0.00    +0.010 A 
ATOM     11  C   UNL     1      -3.698   3.030 -27.004  0.00  0.00    +0.001 A 
ATOM     12  C   UNL     1      -4.799   3.043 -26.314  0.00  0.00    +0.002 A 
ATOM     13  C   UNL     1      -4.782   3.425 -25.072  0.00  0.00    +0.026 A 
ATOM     14  C   UNL     1      -1.339   4.885 -22.312  0.00  0.00    +0.185 C 
ATOM     15  C   UNL     1      -3.665   3.794 -24.519  0.00  0.00    +0.050 A 
ENDROOT
BRANCH   5  16
ATOM     16  C   UNL     1       1.712   4.948 -23.901  0.00  0.00    +0.090 C 
ATOM     17  OXT UNL     1       2.326   5.981 -23.406  0.00  0.00    -0.544 OA
ATOM     18  O   UNL     1       2.371   4.077 -24.607  0.00  0.00    -0.544 OA
ENDBRANCH   5  16
BRANCH   1  19
ATOM     19  C   UNL     1      -4.227   4.357 -22.345  0.00  0.00    +0.122 C 
BRANCH  19  20
ATOM     20  C   UNL     1      -5.024   3.381 -22.021  0.00  0.00    +0.022 C 
BRANCH  20  21
ATOM     21  C   UNL     1      -4.554   2.333 -21.414  0.00  0.00    +0.002 C 
BRANCH  21  22
ATOM     22  C   UNL     1      -3.405   2.392 -20.810  0.00  0.00    +0.000 C 
BRANCH  22  23
ATOM     23  C   UNL     1      -2.462   1.552 -21.122  0.00  0.00    +0.000 C 
BRANCH  23  24
ATOM     24  C   UNL     1      -1.216   1.920 -21.055  0.00  0.00    -0.000 C 
BRANCH  24  25
ATOM     25  C   UNL     1      -0.336   1.379 -21.845  0.00  0.00    -0.000 C 
BRANCH  25  27
ATOM     26  C   UNL     1       1.816   1.331 -22.507  0.00  0.00    +0.004 C 
ATOM     27  C   UNL     1       0.931   1.470 -21.564  0.00  0.00    -0.003 C 
ENDBRANCH  25  27
ENDBRANCH  24  25
ENDBRANCH  23  24
ENDBRANCH  22  23
ENDBRANCH  21  22
ENDBRANCH  20  21
ENDBRANCH  19  20
ENDBRANCH   1  19
TORSDOF 9
ENDMDL
