MODEL 1
REMARK VINA RESULT:    -7.132      0.000      0.000
REMARK INTER + INTRA:          -7.828
REMARK INTER:                  -7.775
REMARK INTRA:                  -0.052
REMARK UNBOUND:                -0.070
REMARK  Name = ZINC000003881368
REMARK  2 active torsions:
REMARK  status: ('A' for Active; 'I' for Inactive)
REMARK    1  A    between atoms: O_1  and  C_2
REMARK    2  A    between atoms: C_2  and  C_3
REMARK                            x       y       z     vdW  Elec       q    Type
REMARK                         _______ _______ _______ _____ _____    ______ ____
ROOT
ATOM      1  C   UNL     1      -2.357   3.372 -23.741  0.00  0.00    +0.063 C 
ATOM      2  C   UNL     1      -2.459   3.958 -24.896  0.00  0.00    +0.016 C 
ATOM      3  C   UNL     1      -3.617   4.381 -25.311  0.00  0.00    +0.051 C 
ATOM      4  C   UNL     1      -4.672   4.217 -24.570  0.00  0.00    +0.131 C 
ATOM      5  N   UNL     1      -4.571   3.631 -23.414  0.00  0.00    +0.238 N 
ATOM      6  H   UNL     1      -5.297   4.052 -23.992  0.00  0.00    +0.204 HD
ATOM      7  C   UNL     1      -5.626   3.467 -22.672  0.00  0.00    +0.131 C 
ATOM      8  C   UNL     1      -5.523   2.880 -21.517  0.00  0.00    +0.051 C 
ATOM      9  C   UNL     1      -4.366   2.458 -21.103  0.00  0.00    +0.011 C 
ATOM     10  C   UNL     1      -3.311   2.622 -21.844  0.00  0.00    +0.055 C 
ATOM     11  C   UNL     1      -3.413   3.208 -23.000  0.00  0.00    +0.070 C 
ENDROOT
BRANCH   1  12
ATOM     12  C   UNL     1      -1.199   2.949 -23.326  0.00  0.00    +0.164 C 
BRANCH  12  13
ATOM     13  O   UNL     1      -0.610   1.967 -23.939  0.00  0.00    -0.395 OA
ATOM     14  H   UNL     1      -0.702   1.157 -23.413  0.00  0.00    +0.209 HD
ENDBRANCH  12  13
ENDBRANCH   1  12
TORSDOF 2
ENDMDL
MODEL 2
REMARK VINA RESULT:    -7.090      1.110      1.438
REMARK INTER + INTRA:          -7.782
REMARK INTER:                  -7.711
REMARK INTRA:                  -0.070
REMARK UNBOUND:                -0.070
REMARK  Name = ZINC000003881368
REMARK  2 active torsions:
REMARK  status: ('A' for Active; 'I' for Inactive)
REMARK    1  A    between atoms: O_1  and  C_2
REMARK    2  A    between atoms: C_2  and  C_3
REMARK                            x       y       z     vdW  Elec       q    Type
REMARK                         _______ _______ _______ _____ _____    ______ ____
ROOT
ATOM      1  C   UNL     1      -2.657   3.763 -24.465  0.00  0.00    +0.063 C 
ATOM      2  C   UNL     1      -3.536   4.049 -25.378  0.00  0.00    +0.016 C 
ATOM      3  C   UNL     1      -4.799   4.102 -25.071  0.00  0.00    +0.051 C 
ATOM      4  C   UNL     1      -5.181   3.869 -23.851  0.00  0.00    +0.131 C 
ATOM      5  N   UNL     1      -4.303   3.582 -22.937  0.00  0.00    +0.238 N 
ATOM      6  H   UNL     1      -5.313   3.695 -23.013  0.00  0.00    +0.204 HD
ATOM      7  C   UNL     1      -4.685   3.349 -21.717  0.00  0.00    +0.131 C 
ATOM      8  C   UNL     1      -3.806   3.063 -20.804  0.00  0.00    +0.051 C 
ATOM      9  C   UNL     1      -2.544   3.010 -21.110  0.00  0.00    +0.011 C 
ATOM     10  C   UNL     1      -2.161   3.244 -22.330  0.00  0.00    +0.055 C 
ATOM     11  C   UNL     1      -3.041   3.530 -23.244  0.00  0.00    +0.070 C 
ENDROOT
BRANCH   1  12
ATOM     12  C   UNL     1      -1.395   3.711 -24.771  0.00  0.00    +0.164 C 
BRANCH  12  13
ATOM     13  O   UNL     1      -1.029   3.307 -25.951  0.00  0.00    -0.395 OA
ATOM     14  H   UNL     1      -1.040   2.337 -25.979  0.00  0.00    +0.209 HD
ENDBRANCH  12  13
ENDBRANCH   1  12
TORSDOF 2
ENDMDL
MODEL 3
REMARK VINA RESULT:    -7.042      1.766      3.390
REMARK INTER + INTRA:          -7.730
REMARK INTER:                  -7.664
REMARK INTRA:                  -0.065
REMARK UNBOUND:                -0.070
REMARK  Name = ZINC000003881368
REMARK  2 active torsions:
REMARK  status: ('A' for Active; 'I' for Inactive)
REMARK    1  A    between atoms: O_1  and  C_2
REMARK    2  A    between atoms: C_2  and  C_3
REMARK                            x       y       z     vdW  Elec       q    Type
REMARK                         _______ _______ _______ _____ _____    ______ ____
ROOT
ATOM      1  C   UNL     1      -4.103   3.661 -23.973  0.00  0.00    +0.063 C 
ATOM      2  C   UNL     1      -5.265   3.784 -23.403  0.00  0.00    +0.016 C 
ATOM      3  C   UNL     1      -5.441   3.356 -22.188  0.00  0.00    +0.051 C 
ATOM      4  C   UNL     1      -4.456   2.805 -21.544  0.00  0.00    +0.131 C 
ATOM      5  N   UNL     1      -3.294   2.682 -22.113  0.00  0.00    +0.238 N 
ATOM      6  H   UNL     1      -3.731   2.459 -21.219  0.00  0.00    +0.204 HD
ATOM      7  C   UNL     1      -2.309   2.131 -21.468  0.00  0.00    +0.131 C 
ATOM      8  C   UNL     1      -1.147   2.008 -22.038  0.00  0.00    +0.051 C 
ATOM      9  C   UNL     1      -0.971   2.436 -23.252  0.00  0.00    +0.011 C 
ATOM     10  C   UNL     1      -1.955   2.987 -23.897  0.00  0.00    +0.055 C 
ATOM     11  C   UNL     1      -3.118   3.110 -23.327  0.00  0.00    +0.070 C 
ENDROOT
BRANCH   1  12
ATOM     12  C   UNL     1      -3.926   4.089 -25.188  0.00  0.00    +0.164 C 
BRANCH  12  13
ATOM     13  O   UNL     1      -4.089   5.349 -25.462  0.00  0.00    -0.395 OA
ATOM     14  H   UNL     1      -3.303   5.844 -25.184  0.00  0.00    +0.209 HD
ENDBRANCH  12  13
ENDBRANCH   1  12
TORSDOF 2
ENDMDL
MODEL 4
REMARK VINA RESULT:    -6.966      1.197      2.580
REMARK INTER + INTRA:          -7.647
REMARK INTER:                  -7.579
REMARK INTRA:                  -0.068
REMARK UNBOUND:                -0.070
REMARK  Name = ZINC000003881368
REMARK  2 active torsions:
REMARK  status: ('A' for Active; 'I' for Inactive)
REMARK    1  A    between atoms: O_1  and  C_2
REMARK    2  A    between atoms: C_2  and  C_3
REMARK                            x       y       z     vdW  Elec       q    Type
REMARK                         _______ _______ _______ _____ _____    ______ ____
ROOT
ATOM      1  C   UNL     1      -1.981   3.001 -24.053  0.00  0.00    +0.063 C 
ATOM      2  C   UNL     1      -0.972   2.492 -23.412  0.00  0.00    +0.016 C 
ATOM      3  C   UNL     1      -1.109   2.120 -22.173  0.00  0.00    +0.051 C 
ATOM      4  C   UNL     1      -2.255   2.257 -21.577  0.00  0.00    +0.131 C 
ATOM      5  N   UNL     1      -3.266   2.766 -22.217  0.00  0.00    +0.238 N 
ATOM      6  H   UNL     1      -3.061   2.397 -21.289  0.00  0.00    +0.204 HD
ATOM      7  C   UNL     1      -4.412   2.903 -21.621  0.00  0.00    +0.131 C 
ATOM      8  C   UNL     1      -5.421   3.412 -22.262  0.00  0.00    +0.051 C 
ATOM      9  C   UNL     1      -5.284   3.784 -23.500  0.00  0.00    +0.011 C 
ATOM     10  C   UNL     1      -4.138   3.647 -24.097  0.00  0.00    +0.055 C 
ATOM     11  C   UNL     1      -3.128   3.138 -23.455  0.00  0.00    +0.070 C 
ENDROOT
BRANCH   1  12
ATOM     12  C   UNL     1      -1.844   3.373 -25.291  0.00  0.00    +0.164 C 
BRANCH  12  13
ATOM     13  O   UNL     1      -0.675   3.331 -25.856  0.00  0.00    -0.395 OA
ATOM     14  H   UNL     1      -0.237   4.192 -25.758  0.00  0.00    +0.209 HD
ENDBRANCH  12  13
ENDBRANCH   1  12
TORSDOF 2
ENDMDL
MODEL 5
REMARK VINA RESULT:    -6.782      1.037      2.844
REMARK INTER + INTRA:          -7.446
REMARK INTER:                  -7.375
REMARK INTRA:                  -0.071
REMARK UNBOUND:                -0.070
REMARK  Name = ZINC000003881368
REMARK  2 active torsions:
REMARK  status: ('A' for Active; 'I' for Inactive)
REMARK    1  A    between atoms: O_1  and  C_2
REMARK    2  A    between atoms: C_2  and  C_3
REMARK                            x       y       z     vdW  Elec       q    Type
REMARK                         _______ _______ _______ _____ _____    ______ ____
ROOT
ATOM      1  C   UNL     1      -2.062   2.628 -22.635  0.00  0.00    +0.063 C 
ATOM      2  C   UNL     1      -2.309   2.625 -21.359  0.00  0.00    +0.016 C 
ATOM      3  C   UNL     1      -3.469   3.016 -20.921  0.00  0.00    +0.051 C 
ATOM      4  C   UNL     1      -4.382   3.409 -21.759  0.00  0.00    +0.131 C 
ATOM      5  N   UNL     1      -4.136   3.411 -23.036  0.00  0.00    +0.238 N 
ATOM      6  H   UNL     1      -4.904   3.646 -22.409  0.00  0.00    +0.204 HD
ATOM      7  C   UNL     1      -5.048   3.804 -23.874  0.00  0.00    +0.131 C 
ATOM      8  C   UNL     1      -4.801   3.806 -25.150  0.00  0.00    +0.051 C 
ATOM      9  C   UNL     1      -3.641   3.416 -25.588  0.00  0.00    +0.011 C 
ATOM     10  C   UNL     1      -2.728   3.023 -24.750  0.00  0.00    +0.055 C 
ATOM     11  C   UNL     1      -2.975   3.021 -23.473  0.00  0.00    +0.070 C 
ENDROOT
BRANCH   1  12
ATOM     12  C   UNL     1      -0.902   2.237 -23.073  0.00  0.00    +0.164 C 
BRANCH  12  13
ATOM     13  O   UNL     1      -0.316   1.210 -22.534  0.00  0.00    -0.395 OA
ATOM     14  H   UNL     1       0.408   1.514 -21.964  0.00  0.00    +0.209 HD
ENDBRANCH  12  13
ENDBRANCH   1  12
TORSDOF 2
ENDMDL
MODEL 6
REMARK VINA RESULT:    -6.640      2.134      3.425
REMARK INTER + INTRA:          -7.293
REMARK INTER:                  -7.224
REMARK INTRA:                  -0.068
REMARK UNBOUND:                -0.070
REMARK  Name = ZINC000003881368
REMARK  2 active torsions:
REMARK  status: ('A' for Active; 'I' for Inactive)
REMARK    1  A    between atoms: O_1  and  C_2
REMARK    2  A    between atoms: C_2  and  C_3
REMARK                            x       y       z     vdW  Elec       q    Type
REMARK                         _______ _______ _______ _____ _____    ______ ____
ROOT
ATOM      1  C   UNL     1      -3.828   3.345 -23.136  0.00  0.00    +0.063 C 
ATOM      2  C   UNL     1      -4.149   3.748 -24.330  0.00  0.00    +0.016 C 
ATOM      3  C   UNL     1      -3.261   3.743 -25.279  0.00  0.00    +0.051 C 
ATOM      4  C   UNL     1      -2.051   3.336 -25.035  0.00  0.00    +0.131 C 
ATOM      5  N   UNL     1      -1.728   2.934 -23.841  0.00  0.00    +0.238 N 
ATOM      6  H   UNL     1      -1.285   3.046 -24.753  0.00  0.00    +0.204 HD
ATOM      7  C   UNL     1      -0.518   2.527 -23.597  0.00  0.00    +0.131 C 
ATOM      8  C   UNL     1      -0.196   2.125 -22.403  0.00  0.00    +0.051 C 
ATOM      9  C   UNL     1      -1.085   2.129 -21.454  0.00  0.00    +0.011 C 
ATOM     10  C   UNL     1      -2.295   2.536 -21.699  0.00  0.00    +0.055 C 
ATOM     11  C   UNL     1      -2.617   2.939 -22.893  0.00  0.00    +0.070 C 
ENDROOT
BRANCH   1  12
ATOM     12  C   UNL     1      -4.716   3.350 -22.187  0.00  0.00    +0.164 C 
BRANCH  12  13
ATOM     13  O   UNL     1      -5.925   3.759 -22.431  0.00  0.00    -0.395 OA
ATOM     14  H   UNL     1      -6.557   3.208 -21.943  0.00  0.00    +0.209 HD
ENDBRANCH  12  13
ENDBRANCH   1  12
TORSDOF 2
ENDMDL
MODEL 7
REMARK VINA RESULT:    -6.628      2.119      4.127
REMARK INTER + INTRA:          -7.279
REMARK INTER:                  -7.209
REMARK INTRA:                  -0.071
REMARK UNBOUND:                -0.070
REMARK  Name = ZINC000003881368
REMARK  2 active torsions:
REMARK  status: ('A' for Active; 'I' for Inactive)
REMARK    1  A    between atoms: O_1  and  C_2
REMARK    2  A    between atoms: C_2  and  C_3
REMARK                            x       y       z     vdW  Elec       q    Type
REMARK                         _______ _______ _______ _____ _____    ______ ____
ROOT
ATOM      1  C   UNL     1      -4.323   3.348 -22.247  0.00  0.00    +0.063 C 
ATOM      2  C   UNL     1      -3.803   3.198 -21.065  0.00  0.00    +0.016 C 
ATOM      3  C   UNL     1      -2.512   3.130 -20.927  0.00  0.00    +0.051 C 
ATOM      4  C   UNL     1      -1.741   3.211 -21.971  0.00  0.00    +0.131 C 
ATOM      5  N   UNL     1      -2.261   3.362 -23.153  0.00  0.00    +0.238 N 
ATOM      6  H   UNL     1      -1.335   3.278 -22.733  0.00  0.00    +0.204 HD
ATOM      7  C   UNL     1      -1.490   3.444 -24.196  0.00  0.00    +0.131 C 
ATOM      8  C   UNL     1      -2.011   3.594 -25.378  0.00  0.00    +0.051 C 
ATOM      9  C   UNL     1      -3.302   3.662 -25.516  0.00  0.00    +0.011 C 
ATOM     10  C   UNL     1      -4.072   3.580 -24.473  0.00  0.00    +0.055 C 
ATOM     11  C   UNL     1      -3.552   3.430 -23.290  0.00  0.00    +0.070 C 
ENDROOT
BRANCH   1  12
ATOM     12  C   UNL     1      -5.614   3.417 -22.385  0.00  0.00    +0.164 C 
BRANCH  12  13
ATOM     13  O   UNL     1      -6.385   2.658 -21.665  0.00  0.00    -0.395 OA
ATOM     14  H   UNL     1      -5.850   1.981 -21.222  0.00  0.00    +0.209 HD
ENDBRANCH  12  13
ENDBRANCH   1  12
TORSDOF 2
ENDMDL
MODEL 8
REMARK VINA RESULT:    -6.002      2.114      3.964
REMARK INTER + INTRA:          -6.598
REMARK INTER:                  -6.529
REMARK INTRA:                  -0.070
REMARK UNBOUND:                -0.070
REMARK  Name = ZINC000003881368
REMARK  2 active torsions:
REMARK  status: ('A' for Active; 'I' for Inactive)
REMARK    1  A    between atoms: O_1  and  C_2
REMARK    2  A    between atoms: C_2  and  C_3
REMARK                            x       y       z     vdW  Elec       q    Type
REMARK                         _______ _______ _______ _____ _____    ______ ____
ROOT
ATOM      1  C   UNL     1      -1.629   3.256 -24.021  0.00  0.00    +0.063 C 
ATOM      2  C   UNL     1      -2.880   3.404 -23.700  0.00  0.00    +0.016 C 
ATOM      3  C   UNL     1      -3.314   2.966 -22.556  0.00  0.00    +0.051 C 
ATOM      4  C   UNL     1      -2.497   2.382 -21.731  0.00  0.00    +0.131 C 
ATOM      5  N   UNL     1      -1.245   2.234 -22.050  0.00  0.00    +0.238 N 
ATOM      6  H   UNL     1      -1.863   2.012 -21.270  0.00  0.00    +0.204 HD
ATOM      7  C   UNL     1      -0.428   1.649 -21.226  0.00  0.00    +0.131 C 
ATOM      8  C   UNL     1       0.823   1.502 -21.546  0.00  0.00    +0.051 C 
ATOM      9  C   UNL     1       1.257   1.939 -22.691  0.00  0.00    +0.011 C 
ATOM     10  C   UNL     1       0.440   2.524 -23.516  0.00  0.00    +0.055 C 
ATOM     11  C   UNL     1      -0.812   2.671 -23.195  0.00  0.00    +0.070 C 
ENDROOT
BRANCH   1  12
ATOM     12  C   UNL     1      -1.195   3.694 -25.165  0.00  0.00    +0.164 C 
BRANCH  12  13
ATOM     13  O   UNL     1      -1.753   3.292 -26.268  0.00  0.00    -0.395 OA
ATOM     14  H   UNL     1      -2.188   2.437 -26.117  0.00  0.00    +0.209 HD
ENDBRANCH  12  13
ENDBRANCH   1  12
TORSDOF 2
ENDMDL
MODEL 9
REMARK VINA RESULT:    -5.821      2.747      5.201
REMARK INTER + INTRA:          -6.401
REMARK INTER:                  -6.331
REMARK INTRA:                  -0.070
REMARK UNBOUND:                -0.070
REMARK  Name = ZINC000003881368
REMARK  2 active torsions:
REMARK  status: ('A' for Active; 'I' for Inactive)
REMARK    1  A    between atoms: O_1  and  C_2
REMARK    2  A    between atoms: C_2  and  C_3
REMARK                            x       y       z     vdW  Elec       q    Type
REMARK                         _______ _______ _______ _____ _____    ______ ____
ROOT
ATOM      1  C   UNL     1      -1.569   2.573 -22.851  0.00  0.00    +0.063 C 
ATOM      2  C   UNL     1      -1.413   1.921 -21.737  0.00  0.00    +0.016 C 
ATOM      3  C   UNL     1      -0.230   1.515 -21.382  0.00  0.00    +0.051 C 
ATOM      4  C   UNL     1       0.797   1.760 -22.140  0.00  0.00    +0.131 C 
ATOM      5  N   UNL     1       0.642   2.411 -23.254  0.00  0.00    +0.238 N 
ATOM      6  H   UNL     1       1.398   1.981 -22.723  0.00  0.00    +0.204 HD
ATOM      7  C   UNL     1       1.668   2.656 -24.013  0.00  0.00    +0.131 C 
ATOM      8  C   UNL     1       1.512   3.307 -25.127  0.00  0.00    +0.051 C 
ATOM      9  C   UNL     1       0.330   3.714 -25.482  0.00  0.00    +0.011 C 
ATOM     10  C   UNL     1      -0.697   3.469 -24.724  0.00  0.00    +0.055 C 
ATOM     11  C   UNL     1      -0.541   2.817 -23.609  0.00  0.00    +0.070 C 
ENDROOT
BRANCH   1  12
ATOM     12  C   UNL     1      -2.751   2.979 -23.206  0.00  0.00    +0.164 C 
BRANCH  12  13
ATOM     13  O   UNL     1      -3.657   3.210 -22.304  0.00  0.00    -0.395 OA
ATOM     14  H   UNL     1      -3.625   4.145 -22.046  0.00  0.00    +0.209 HD
ENDBRANCH  12  13
ENDBRANCH   1  12
TORSDOF 2
ENDMDL
