MODEL 1
REMARK VINA RESULT:   -10.996      0.000      0.000
REMARK INTER + INTRA:         -10.996
REMARK INTER:                 -10.996
REMARK INTRA:                   0.000
REMARK UNBOUND:                 0.000
REMARK  Name = ZINC000001615142
REMARK  3 active torsions:
REMARK  status: ('A' for Active; 'I' for Inactive)
REMARK    1  A    between atoms: C_1  and  C_2
REMARK    2  A    between atoms: C_16  and  C_17
REMARK    3  A    between atoms: C_16  and  C_18
REMARK                            x       y       z     vdW  Elec       q    Type
REMARK                         _______ _______ _______ _____ _____    ______ ____
ROOT
ATOM      1  C   UNL     1       0.650   3.776 -25.405  0.00  0.00    +0.047 C 
ATOM      2  C   UNL     1      -0.070   3.374 -24.400  0.00  0.00    -0.007 A 
ATOM      3  C   UNL     1      -1.351   3.601 -24.386  0.00  0.00    +0.017 A 
ATOM      4  C   UNL     1      -2.071   3.200 -23.383  0.00  0.00    +0.008 A 
ATOM      5  C   UNL     1      -1.512   2.571 -22.391  0.00  0.00    +0.058 A 
ATOM      6  C   UNL     1      -0.232   2.344 -22.405  0.00  0.00    +0.041 A 
ATOM      7  C   UNL     1       0.328   1.715 -21.414  0.00  0.00    +0.013 C 
ATOM      8  C   UNL     1       1.608   1.488 -21.428  0.00  0.00    +0.020 C 
ATOM      9  C   UNL     1       2.328   1.890 -22.433  0.00  0.00    +0.124 C 
ATOM     10  C   UNL     1       3.368   2.098 -23.184  0.00  0.00    +0.060 C 
ATOM     11  C   UNL     1       3.249   1.334 -21.703  0.00  0.00    +0.060 C 
ATOM     12  O   UNL     1       1.769   2.518 -23.423  0.00  0.00    -0.481 OA
ATOM     13  N   UNL     1      -2.437   2.281 -21.525  0.00  0.00    -0.354 N 
ATOM     14  H   UNL     1      -2.305   1.805 -20.674  0.00  0.00    +0.166 HD
ATOM     15  C   UNL     1      -3.569   2.731 -21.981  0.00  0.00    +0.047 A 
ATOM     16  C   UNL     1      -4.776   2.697 -21.500  0.00  0.00    +0.026 A 
ATOM     17  C   UNL     1      -5.757   3.230 -22.166  0.00  0.00    +0.002 A 
ATOM     18  C   UNL     1      -5.530   3.798 -23.313  0.00  0.00    +0.001 A 
ATOM     19  C   UNL     1      -4.323   3.832 -23.795  0.00  0.00    +0.010 A 
ATOM     20  C   UNL     1      -3.343   3.299 -23.129  0.00  0.00    +0.007 A 
ATOM     21  C   UNL     1       0.489   2.746 -23.410  0.00  0.00    +0.134 A 
ENDROOT
TORSDOF 0
ENDMDL
MODEL 2
REMARK VINA RESULT:   -10.679      1.907      6.131
REMARK INTER + INTRA:         -10.679
REMARK INTER:                 -10.679
REMARK INTRA:                   0.000
REMARK UNBOUND:                 0.000
REMARK  Name = ZINC000001615142
REMARK  3 active torsions:
REMARK  status: ('A' for Active; 'I' for Inactive)
REMARK    1  A    between atoms: C_1  and  C_2
REMARK    2  A    between atoms: C_16  and  C_17
REMARK    3  A    between atoms: C_16  and  C_18
REMARK                            x       y       z     vdW  Elec       q    Type
REMARK                         _______ _______ _______ _____ _____    ______ ____
ROOT
ATOM      1  C   UNL     1      -3.146   2.648 -20.727  0.00  0.00    +0.047 C 
ATOM      2  C   UNL     1      -2.260   2.622 -21.678  0.00  0.00    -0.007 A 
ATOM      3  C   UNL     1      -1.041   2.250 -21.422  0.00  0.00    +0.017 A 
ATOM      4  C   UNL     1      -0.156   2.223 -22.372  0.00  0.00    +0.008 A 
ATOM      5  C   UNL     1      -0.488   2.570 -23.581  0.00  0.00    +0.058 A 
ATOM      6  C   UNL     1      -1.707   2.943 -23.837  0.00  0.00    +0.041 A 
ATOM      7  C   UNL     1      -2.040   3.290 -25.045  0.00  0.00    +0.013 C 
ATOM      8  C   UNL     1      -3.259   3.663 -25.302  0.00  0.00    +0.020 C 
ATOM      9  C   UNL     1      -4.145   3.689 -24.350  0.00  0.00    +0.124 C 
ATOM     10  C   UNL     1      -5.284   3.855 -23.746  0.00  0.00    +0.060 C 
ATOM     11  C   UNL     1      -4.873   4.093 -25.348  0.00  0.00    +0.060 C 
ATOM     12  O   UNL     1      -3.812   3.342 -23.143  0.00  0.00    -0.481 OA
ATOM     13  N   UNL     1       0.564   2.458 -24.335  0.00  0.00    -0.354 N 
ATOM     14  H   UNL     1       0.608   2.654 -25.299  0.00  0.00    +0.166 HD
ATOM     15  C   UNL     1       1.548   2.042 -23.594  0.00  0.00    +0.047 A 
ATOM     16  C   UNL     1       2.791   1.777 -23.867  0.00  0.00    +0.026 A 
ATOM     17  C   UNL     1       3.589   1.367 -22.927  0.00  0.00    +0.002 A 
ATOM     18  C   UNL     1       3.144   1.222 -21.714  0.00  0.00    +0.001 A 
ATOM     19  C   UNL     1       1.901   1.487 -21.441  0.00  0.00    +0.010 A 
ATOM     20  C   UNL     1       1.103   1.897 -22.381  0.00  0.00    +0.007 A 
ATOM     21  C   UNL     1      -2.593   2.969 -22.885  0.00  0.00    +0.134 A 
ENDROOT
TORSDOF 0
ENDMDL
MODEL 3
REMARK VINA RESULT:   -10.558      1.556      5.655
REMARK INTER + INTRA:         -10.558
REMARK INTER:                 -10.558
REMARK INTRA:                   0.000
REMARK UNBOUND:                 0.000
REMARK  Name = ZINC000001615142
REMARK  3 active torsions:
REMARK  status: ('A' for Active; 'I' for Inactive)
REMARK    1  A    between atoms: C_1  and  C_2
REMARK    2  A    between atoms: C_16  and  C_17
REMARK    3  A    between atoms: C_16  and  C_18
REMARK                            x       y       z     vdW  Elec       q    Type
REMARK                         _______ _______ _______ _____ _____    ______ ____
ROOT
ATOM      1  C   UNL     1      -2.220   3.736 -25.622  0.00  0.00    +0.047 C 
ATOM      2  C   UNL     1      -1.742   3.262 -24.510  0.00  0.00    -0.007 A 
ATOM      3  C   UNL     1      -0.480   2.960 -24.421  0.00  0.00    +0.017 A 
ATOM      4  C   UNL     1      -0.002   2.486 -23.310  0.00  0.00    +0.008 A 
ATOM      5  C   UNL     1      -0.785   2.313 -22.286  0.00  0.00    +0.058 A 
ATOM      6  C   UNL     1      -2.047   2.615 -22.375  0.00  0.00    +0.041 A 
ATOM      7  C   UNL     1      -2.830   2.443 -21.352  0.00  0.00    +0.013 C 
ATOM      8  C   UNL     1      -4.092   2.745 -21.441  0.00  0.00    +0.020 C 
ATOM      9  C   UNL     1      -4.570   3.219 -22.553  0.00  0.00    +0.124 C 
ATOM     10  C   UNL     1      -5.423   3.690 -23.413  0.00  0.00    +0.060 C 
ATOM     11  C   UNL     1      -5.649   3.210 -21.829  0.00  0.00    +0.060 C 
ATOM     12  O   UNL     1      -3.787   3.391 -23.575  0.00  0.00    -0.481 OA
ATOM     13  N   UNL     1      -0.073   1.834 -21.311  0.00  0.00    -0.354 N 
ATOM     14  H   UNL     1      -0.401   1.605 -20.411  0.00  0.00    +0.166 HD
ATOM     15  C   UNL     1       1.152   1.710 -21.731  0.00  0.00    +0.047 A 
ATOM     16  C   UNL     1       2.232   1.283 -21.148  0.00  0.00    +0.026 A 
ATOM     17  C   UNL     1       3.356   1.258 -21.801  0.00  0.00    +0.002 A 
ATOM     18  C   UNL     1       3.400   1.661 -23.036  0.00  0.00    +0.001 A 
ATOM     19  C   UNL     1       2.319   2.088 -23.619  0.00  0.00    +0.010 A 
ATOM     20  C   UNL     1       1.195   2.113 -22.966  0.00  0.00    +0.007 A 
ATOM     21  C   UNL     1      -2.525   3.089 -23.487  0.00  0.00    +0.134 A 
ENDROOT
TORSDOF 0
ENDMDL
MODEL 4
REMARK VINA RESULT:   -10.373      1.249      2.574
REMARK INTER + INTRA:         -10.373
REMARK INTER:                 -10.373
REMARK INTRA:                   0.000
REMARK UNBOUND:                 0.000
REMARK  Name = ZINC000001615142
REMARK  3 active torsions:
REMARK  status: ('A' for Active; 'I' for Inactive)
REMARK    1  A    between atoms: C_1  and  C_2
REMARK    2  A    between atoms: C_16  and  C_17
REMARK    3  A    between atoms: C_16  and  C_18
REMARK                            x       y       z     vdW  Elec       q    Type
REMARK                         _______ _______ _______ _____ _____    ______ ____
ROOT
ATOM      1  C   UNL     1       0.277   1.463 -20.671  0.00  0.00    +0.047 C 
ATOM      2  C   UNL     1      -0.203   1.996 -21.756  0.00  0.00    -0.007 A 
ATOM      3  C   UNL     1      -1.463   2.307 -21.825  0.00  0.00    +0.017 A 
ATOM      4  C   UNL     1      -1.944   2.839 -22.908  0.00  0.00    +0.008 A 
ATOM      5  C   UNL     1      -1.163   3.062 -23.924  0.00  0.00    +0.058 A 
ATOM      6  C   UNL     1       0.098   2.750 -23.855  0.00  0.00    +0.041 A 
ATOM      7  C   UNL     1       0.878   2.972 -24.871  0.00  0.00    +0.013 C 
ATOM      8  C   UNL     1       2.139   2.661 -24.802  0.00  0.00    +0.020 C 
ATOM      9  C   UNL     1       2.618   2.128 -23.718  0.00  0.00    +0.124 C 
ATOM     10  C   UNL     1       3.473   1.610 -22.887  0.00  0.00    +0.060 C 
ATOM     11  C   UNL     1       3.695   2.170 -24.445  0.00  0.00    +0.060 C 
ATOM     12  O   UNL     1       1.838   1.907 -22.703  0.00  0.00    -0.481 OA
ATOM     13  N   UNL     1      -1.877   3.593 -24.871  0.00  0.00    -0.354 N 
ATOM     14  H   UNL     1      -1.550   3.867 -25.758  0.00  0.00    +0.166 HD
ATOM     15  C   UNL     1      -3.099   3.701 -24.441  0.00  0.00    +0.047 A 
ATOM     16  C   UNL     1      -4.180   4.162 -24.997  0.00  0.00    +0.026 A 
ATOM     17  C   UNL     1      -5.302   4.157 -24.340  0.00  0.00    +0.002 A 
ATOM     18  C   UNL     1      -5.343   3.692 -23.127  0.00  0.00    +0.001 A 
ATOM     19  C   UNL     1      -4.262   3.230 -22.571  0.00  0.00    +0.010 A 
ATOM     20  C   UNL     1      -3.140   3.235 -23.228  0.00  0.00    +0.007 A 
ATOM     21  C   UNL     1       0.577   2.217 -22.771  0.00  0.00    +0.134 A 
ENDROOT
TORSDOF 0
ENDMDL
MODEL 5
REMARK VINA RESULT:    -9.868      1.593      5.936
REMARK INTER + INTRA:          -9.868
REMARK INTER:                  -9.868
REMARK INTRA:                   0.000
REMARK UNBOUND:                 0.000
REMARK  Name = ZINC000001615142
REMARK  3 active torsions:
REMARK  status: ('A' for Active; 'I' for Inactive)
REMARK    1  A    between atoms: C_1  and  C_2
REMARK    2  A    between atoms: C_16  and  C_17
REMARK    3  A    between atoms: C_16  and  C_18
REMARK                            x       y       z     vdW  Elec       q    Type
REMARK                         _______ _______ _______ _____ _____    ______ ____
ROOT
ATOM      1  C   UNL     1       0.203   3.833 -25.370  0.00  0.00    +0.047 C 
ATOM      2  C   UNL     1       0.469   3.180 -24.278  0.00  0.00    -0.007 A 
ATOM      3  C   UNL     1       1.684   2.784 -24.037  0.00  0.00    +0.017 A 
ATOM      4  C   UNL     1       1.951   2.132 -22.946  0.00  0.00    +0.008 A 
ATOM      5  C   UNL     1       1.003   1.875 -22.094  0.00  0.00    +0.058 A 
ATOM      6  C   UNL     1      -0.212   2.271 -22.335  0.00  0.00    +0.041 A 
ATOM      7  C   UNL     1      -1.160   2.014 -21.482  0.00  0.00    +0.013 C 
ATOM      8  C   UNL     1      -2.375   2.410 -21.723  0.00  0.00    +0.020 C 
ATOM      9  C   UNL     1      -2.641   3.063 -22.815  0.00  0.00    +0.124 C 
ATOM     10  C   UNL     1      -3.319   3.704 -23.720  0.00  0.00    +0.060 C 
ATOM     11  C   UNL     1      -3.824   3.029 -22.278  0.00  0.00    +0.060 C 
ATOM     12  O   UNL     1      -1.694   3.319 -23.666  0.00  0.00    -0.481 OA
ATOM     13  N   UNL     1       1.523   1.220 -21.099  0.00  0.00    -0.354 N 
ATOM     14  H   UNL     1       1.041   0.893 -20.305  0.00  0.00    +0.166 HD
ATOM     15  C   UNL     1       2.793   1.071 -21.336  0.00  0.00    +0.047 A 
ATOM     16  C   UNL     1       3.743   0.496 -20.660  0.00  0.00    +0.026 A 
ATOM     17  C   UNL     1       4.956   0.484 -21.125  0.00  0.00    +0.002 A 
ATOM     18  C   UNL     1       5.221   1.047 -22.266  0.00  0.00    +0.001 A 
ATOM     19  C   UNL     1       4.271   1.623 -22.942  0.00  0.00    +0.010 A 
ATOM     20  C   UNL     1       3.058   1.635 -22.477  0.00  0.00    +0.007 A 
ATOM     21  C   UNL     1      -0.478   2.924 -23.427  0.00  0.00    +0.134 A 
ENDROOT
TORSDOF 0
ENDMDL
MODEL 6
REMARK VINA RESULT:    -9.292      2.172      6.420
REMARK INTER + INTRA:          -9.292
REMARK INTER:                  -9.292
REMARK INTRA:                   0.000
REMARK UNBOUND:                 0.000
REMARK  Name = ZINC000001615142
REMARK  3 active torsions:
REMARK  status: ('A' for Active; 'I' for Inactive)
REMARK    1  A    between atoms: C_1  and  C_2
REMARK    2  A    between atoms: C_16  and  C_17
REMARK    3  A    between atoms: C_16  and  C_18
REMARK                            x       y       z     vdW  Elec       q    Type
REMARK                         _______ _______ _______ _____ _____    ______ ____
ROOT
ATOM      1  C   UNL     1      -1.429   1.506 -21.404  0.00  0.00    +0.047 C 
ATOM      2  C   UNL     1      -0.478   1.969 -22.159  0.00  0.00    -0.007 A 
ATOM      3  C   UNL     1       0.760   1.881 -21.772  0.00  0.00    +0.017 A 
ATOM      4  C   UNL     1       1.711   2.344 -22.526  0.00  0.00    +0.008 A 
ATOM      5  C   UNL     1       1.425   2.896 -23.669  0.00  0.00    +0.058 A 
ATOM      6  C   UNL     1       0.187   2.984 -24.055  0.00  0.00    +0.041 A 
ATOM      7  C   UNL     1      -0.099   3.535 -25.198  0.00  0.00    +0.013 C 
ATOM      8  C   UNL     1      -1.338   3.623 -25.585  0.00  0.00    +0.020 C 
ATOM      9  C   UNL     1      -2.289   3.160 -24.829  0.00  0.00    +0.124 C 
ATOM     10  C   UNL     1      -3.484   2.851 -24.423  0.00  0.00    +0.060 C 
ATOM     11  C   UNL     1      -2.990   3.604 -25.830  0.00  0.00    +0.060 C 
ATOM     12  O   UNL     1      -2.003   2.609 -23.688  0.00  0.00    -0.481 OA
ATOM     13  N   UNL     1       2.538   3.272 -24.224  0.00  0.00    -0.354 N 
ATOM     14  H   UNL     1       2.628   3.720 -25.096  0.00  0.00    +0.166 HD
ATOM     15  C   UNL     1       3.514   2.954 -23.425  0.00  0.00    +0.047 A 
ATOM     16  C   UNL     1       4.801   3.112 -23.517  0.00  0.00    +0.026 A 
ATOM     17  C   UNL     1       5.576   2.696 -22.560  0.00  0.00    +0.002 A 
ATOM     18  C   UNL     1       5.065   2.123 -21.512  0.00  0.00    +0.001 A 
ATOM     19  C   UNL     1       3.778   1.965 -21.420  0.00  0.00    +0.010 A 
ATOM     20  C   UNL     1       3.003   2.380 -22.376  0.00  0.00    +0.007 A 
ATOM     21  C   UNL     1      -0.764   2.520 -23.300  0.00  0.00    +0.134 A 
ENDROOT
TORSDOF 0
ENDMDL
MODEL 7
REMARK VINA RESULT:    -8.416      3.562      7.712
REMARK INTER + INTRA:          -8.416
REMARK INTER:                  -8.416
REMARK INTRA:                   0.000
REMARK UNBOUND:                 0.000
REMARK  Name = ZINC000001615142
REMARK  3 active torsions:
REMARK  status: ('A' for Active; 'I' for Inactive)
REMARK    1  A    between atoms: C_1  and  C_2
REMARK    2  A    between atoms: C_16  and  C_17
REMARK    3  A    between atoms: C_16  and  C_18
REMARK                            x       y       z     vdW  Elec       q    Type
REMARK                         _______ _______ _______ _____ _____    ______ ____
ROOT
ATOM      1  C   UNL     1       3.082   1.141 -24.387  0.00  0.00    +0.047 C 
ATOM      2  C   UNL     1       3.400   2.325 -23.954  0.00  0.00    -0.007 A 
ATOM      3  C   UNL     1       4.642   2.612 -23.700  0.00  0.00    +0.017 A 
ATOM      4  C   UNL     1       4.961   3.795 -23.267  0.00  0.00    +0.008 A 
ATOM      5  C   UNL     1       4.037   4.693 -23.089  0.00  0.00    +0.058 A 
ATOM      6  C   UNL     1       2.795   4.406 -23.344  0.00  0.00    +0.041 A 
ATOM      7  C   UNL     1       1.871   5.303 -23.165  0.00  0.00    +0.013 C 
ATOM      8  C   UNL     1       0.628   5.016 -23.420  0.00  0.00    +0.020 C 
ATOM      9  C   UNL     1       0.310   3.832 -23.852  0.00  0.00    +0.124 C 
ATOM     10  C   UNL     1      -0.417   2.841 -24.274  0.00  0.00    +0.060 C 
ATOM     11  C   UNL     1      -0.866   4.385 -23.821  0.00  0.00    +0.060 C 
ATOM     12  O   UNL     1       1.234   2.936 -24.030  0.00  0.00    -0.481 OA
ATOM     13  N   UNL     1       4.608   5.777 -22.657  0.00  0.00    -0.354 N 
ATOM     14  H   UNL     1       4.154   6.622 -22.436  0.00  0.00    +0.166 HD
ATOM     15  C   UNL     1       5.886   5.551 -22.568  0.00  0.00    +0.047 A 
ATOM     16  C   UNL     1       6.878   6.301 -22.192  0.00  0.00    +0.026 A 
ATOM     17  C   UNL     1       8.088   5.827 -22.193  0.00  0.00    +0.002 A 
ATOM     18  C   UNL     1       8.306   4.603 -22.570  0.00  0.00    +0.001 A 
ATOM     19  C   UNL     1       7.314   3.852 -22.946  0.00  0.00    +0.010 A 
ATOM     20  C   UNL     1       6.103   4.326 -22.945  0.00  0.00    +0.007 A 
ATOM     21  C   UNL     1       2.477   3.222 -23.776  0.00  0.00    +0.134 A 
ENDROOT
TORSDOF 0
ENDMDL
MODEL 8
REMARK VINA RESULT:    -8.315      1.325      2.340
REMARK INTER + INTRA:          -8.315
REMARK INTER:                  -8.315
REMARK INTRA:                   0.000
REMARK UNBOUND:                 0.000
REMARK  Name = ZINC000001615142
REMARK  3 active torsions:
REMARK  status: ('A' for Active; 'I' for Inactive)
REMARK    1  A    between atoms: C_1  and  C_2
REMARK    2  A    between atoms: C_16  and  C_17
REMARK    3  A    between atoms: C_16  and  C_18
REMARK                            x       y       z     vdW  Elec       q    Type
REMARK                         _______ _______ _______ _____ _____    ______ ____
ROOT
ATOM      1  C   UNL     1       3.170   3.236 -24.499  0.00  0.00    +0.047 C 
ATOM      2  C   UNL     1       2.304   2.823 -23.621  0.00  0.00    -0.007 A 
ATOM      3  C   UNL     1       1.054   3.160 -23.732  0.00  0.00    +0.017 A 
ATOM      4  C   UNL     1       0.188   2.748 -22.856  0.00  0.00    +0.008 A 
ATOM      5  C   UNL     1       0.573   1.997 -21.867  0.00  0.00    +0.058 A 
ATOM      6  C   UNL     1       1.823   1.659 -21.755  0.00  0.00    +0.041 A 
ATOM      7  C   UNL     1       2.208   0.908 -20.766  0.00  0.00    +0.013 C 
ATOM      8  C   UNL     1       3.459   0.570 -20.654  0.00  0.00    +0.020 C 
ATOM      9  C   UNL     1       4.324   0.984 -21.532  0.00  0.00    +0.124 C 
ATOM     10  C   UNL     1       5.460   1.157 -22.139  0.00  0.00    +0.060 C 
ATOM     11  C   UNL     1       5.103   0.293 -20.754  0.00  0.00    +0.060 C 
ATOM     12  O   UNL     1       3.940   1.734 -22.520  0.00  0.00    -0.481 OA
ATOM     13  N   UNL     1      -0.470   1.723 -21.140  0.00  0.00    -0.354 N 
ATOM     14  H   UNL     1      -0.479   1.172 -20.325  0.00  0.00    +0.166 HD
ATOM     15  C   UNL     1      -1.500   2.305 -21.681  0.00  0.00    +0.047 A 
ATOM     16  C   UNL     1      -2.755   2.340 -21.344  0.00  0.00    +0.026 A 
ATOM     17  C   UNL     1      -3.603   3.008 -22.068  0.00  0.00    +0.002 A 
ATOM     18  C   UNL     1      -3.197   3.641 -23.127  0.00  0.00    +0.001 A 
ATOM     19  C   UNL     1      -1.942   3.606 -23.464  0.00  0.00    +0.010 A 
ATOM     20  C   UNL     1      -1.093   2.938 -22.740  0.00  0.00    +0.007 A 
ATOM     21  C   UNL     1       2.689   2.072 -22.633  0.00  0.00    +0.134 A 
ENDROOT
TORSDOF 0
ENDMDL
