MODEL 1
REMARK VINA RESULT:    -8.958      0.000      0.000
REMARK INTER + INTRA:         -11.269
REMARK INTER:                 -11.156
REMARK INTRA:                  -0.113
REMARK UNBOUND:                 0.046
REMARK  Name = ZINC000004104805
REMARK  8 active torsions:
REMARK  status: ('A' for Active; 'I' for Inactive)
REMARK    1  A    between atoms: C_1  and  O_2
REMARK    2  A    between atoms: O_2  and  C_3
REMARK    3  A    between atoms: C_4  and  O_5
REMARK    4  A    between atoms: C_9  and  O_10
REMARK    5  A    between atoms: C_13  and  C_14
REMARK    6  A    between atoms: C_14  and  O_15
REMARK    7  A    between atoms: C_16  and  O_17
REMARK    8  A    between atoms: C_18  and  O_19
REMARK                            x       y       z     vdW  Elec       q    Type
REMARK                         _______ _______ _______ _____ _____    ______ ____
ROOT
ATOM      1  C   UNL     1      -2.728   3.755 -25.189  0.00  0.00    +0.203 A 
ATOM      2  C   UNL     1      -3.673   3.915 -24.312  0.00  0.00    +0.163 A 
ATOM      3  C   UNL     1      -3.476   3.571 -23.074  0.00  0.00    +0.064 A 
ATOM      4  C   UNL     1      -2.333   3.066 -22.714  0.00  0.00    +0.072 A 
ATOM      5  C   UNL     1      -1.388   2.906 -23.591  0.00  0.00    +0.044 A 
ATOM      6  C   UNL     1      -0.245   2.401 -23.231  0.00  0.00    +0.196 C 
ATOM      7  O   UNL     1       0.700   2.241 -24.109  0.00  0.00    -0.360 OA
ATOM      8  C   UNL     1       1.843   1.736 -23.748  0.00  0.00    +0.175 C 
ATOM      9  C   UNL     1       2.040   1.392 -22.511  0.00  0.00    +0.178 C 
ATOM     10  C   UNL     1       1.095   1.552 -21.633  0.00  0.00    +0.189 C 
ATOM     11  C   UNL     1      -0.048   2.057 -21.994  0.00  0.00    +0.241 C 
ATOM     12  O   UNL     1      -0.993   2.217 -21.115  0.00  0.00    -0.452 OA
ATOM     13  C   UNL     1      -2.136   2.722 -21.475  0.00  0.00    +0.340 C 
ATOM     14  O   UNL     1      -3.081   2.883 -20.598  0.00  0.00    -0.245 OA
ATOM     15  C   UNL     1      -1.585   3.250 -24.829  0.00  0.00    +0.169 A 
ENDROOT
BRANCH   1  17
ATOM     16  C   UNL     1      -3.523   3.281 -27.242  0.00  0.00    +0.277 C 
ATOM     17  O   UNL     1      -2.925   4.099 -26.428  0.00  0.00    -0.489 OA
ENDBRANCH   1  17
BRANCH  10  18
ATOM     18  O   UNL     1       1.292   1.208 -20.395  0.00  0.00    -0.385 OA
ATOM     19  H   UNL     1       0.519   1.458 -19.864  0.00  0.00    +0.210 HD
ENDBRANCH  10  18
BRANCH   9  20
ATOM     20  O   UNL     1       3.183   0.887 -22.151  0.00  0.00    -0.386 OA
ATOM     21  H   UNL     1       3.263   0.925 -21.185  0.00  0.00    +0.210 HD
ENDBRANCH   9  20
BRANCH  15  22
ATOM     22  O   UNL     1      -0.639   3.089 -25.707  0.00  0.00    -0.503 OA
ATOM     23  H   UNL     1       0.236   3.360 -25.509  0.00  0.00    +0.292 HD
ENDBRANCH  15  22
BRANCH   2  24
ATOM     24  O   UNL     1      -4.816   4.420 -24.672  0.00  0.00    -0.503 OA
ATOM     25  H   UNL     1      -5.292   4.969 -24.081  0.00  0.00    +0.292 HD
ENDBRANCH   2  24
BRANCH   8  26
ATOM     26  C   UNL     1       2.788   1.575 -24.626  0.00  0.00    +0.190 C 
BRANCH  26  27
ATOM     27  O   UNL     1       3.070   0.385 -25.068  0.00  0.00    -0.392 OA
ATOM     28  H   UNL     1       3.408   0.449 -25.975  0.00  0.00    +0.210 HD
ENDBRANCH  26  27
ENDBRANCH   8  26
TORSDOF 7
ENDMDL
MODEL 2
REMARK VINA RESULT:    -8.715      1.270      5.422
REMARK INTER + INTRA:         -10.961
REMARK INTER:                 -10.909
REMARK INTRA:                  -0.052
REMARK UNBOUND:                 0.046
REMARK  Name = ZINC000004104805
REMARK  8 active torsions:
REMARK  status: ('A' for Active; 'I' for Inactive)
REMARK    1  A    between atoms: C_1  and  O_2
REMARK    2  A    between atoms: O_2  and  C_3
REMARK    3  A    between atoms: C_4  and  O_5
REMARK    4  A    between atoms: C_9  and  O_10
REMARK    5  A    between atoms: C_13  and  C_14
REMARK    6  A    between atoms: C_14  and  O_15
REMARK    7  A    between atoms: C_16  and  O_17
REMARK    8  A    between atoms: C_18  and  O_19
REMARK                            x       y       z     vdW  Elec       q    Type
REMARK                         _______ _______ _______ _____ _____    ______ ____
ROOT
ATOM      1  C   UNL     1       0.590   1.818 -22.693  0.00  0.00    +0.203 A 
ATOM      2  C   UNL     1       0.374   1.717 -21.416  0.00  0.00    +0.163 A 
ATOM      3  C   UNL     1      -0.776   2.067 -20.922  0.00  0.00    +0.064 A 
ATOM      4  C   UNL     1      -1.710   2.518 -21.705  0.00  0.00    +0.072 A 
ATOM      5  C   UNL     1      -1.494   2.619 -22.983  0.00  0.00    +0.044 A 
ATOM      6  C   UNL     1      -2.428   3.069 -23.767  0.00  0.00    +0.196 C 
ATOM      7  O   UNL     1      -2.212   3.170 -25.044  0.00  0.00    -0.360 OA
ATOM      8  C   UNL     1      -3.147   3.621 -25.828  0.00  0.00    +0.175 C 
ATOM      9  C   UNL     1      -4.296   3.971 -25.334  0.00  0.00    +0.178 C 
ATOM     10  C   UNL     1      -4.512   3.870 -24.056  0.00  0.00    +0.189 C 
ATOM     11  C   UNL     1      -3.578   3.419 -23.273  0.00  0.00    +0.241 C 
ATOM     12  O   UNL     1      -3.795   3.319 -21.994  0.00  0.00    -0.452 OA
ATOM     13  C   UNL     1      -2.860   2.868 -21.210  0.00  0.00    +0.340 C 
ATOM     14  O   UNL     1      -3.076   2.767 -19.933  0.00  0.00    -0.245 OA
ATOM     15  C   UNL     1      -0.344   2.268 -23.477  0.00  0.00    +0.169 A 
ENDROOT
BRANCH   1  17
ATOM     16  C   UNL     1       2.695   2.344 -23.297  0.00  0.00    +0.277 C 
ATOM     17  O   UNL     1       1.741   1.467 -23.188  0.00  0.00    -0.489 OA
ENDBRANCH   1  17
BRANCH  10  18
ATOM     18  O   UNL     1      -5.663   4.221 -23.561  0.00  0.00    -0.385 OA
ATOM     19  H   UNL     1      -5.580   4.336 -22.602  0.00  0.00    +0.210 HD
ENDBRANCH  10  18
BRANCH   9  20
ATOM     20  O   UNL     1      -5.231   4.422 -26.118  0.00  0.00    -0.386 OA
ATOM     21  H   UNL     1      -5.779   3.684 -26.425  0.00  0.00    +0.210 HD
ENDBRANCH   9  20
BRANCH  15  22
ATOM     22  O   UNL     1      -0.128   2.369 -24.756  0.00  0.00    -0.503 OA
ATOM     23  H   UNL     1      -0.428   3.123 -25.224  0.00  0.00    +0.292 HD
ENDBRANCH  15  22
BRANCH   2  24
ATOM     24  O   UNL     1       1.308   1.266 -20.632  0.00  0.00    -0.503 OA
ATOM     25  H   UNL     1       1.933   1.857 -20.260  0.00  0.00    +0.292 HD
ENDBRANCH   2  24
BRANCH   8  26
ATOM     26  C   UNL     1      -2.931   3.722 -27.106  0.00  0.00    +0.190 C 
BRANCH  26  27
ATOM     27  O   UNL     1      -3.747   3.163 -27.949  0.00  0.00    -0.392 OA
ATOM     28  H   UNL     1      -4.521   2.823 -27.474  0.00  0.00    +0.210 HD
ENDBRANCH  26  27
ENDBRANCH   8  26
TORSDOF 7
ENDMDL
MODEL 3
REMARK VINA RESULT:    -8.429      1.946      4.260
REMARK INTER + INTRA:         -10.601
REMARK INTER:                 -10.753
REMARK INTRA:                   0.153
REMARK UNBOUND:                 0.046
REMARK  Name = ZINC000004104805
REMARK  8 active torsions:
REMARK  status: ('A' for Active; 'I' for Inactive)
REMARK    1  A    between atoms: C_1  and  O_2
REMARK    2  A    between atoms: O_2  and  C_3
REMARK    3  A    between atoms: C_4  and  O_5
REMARK    4  A    between atoms: C_9  and  O_10
REMARK    5  A    between atoms: C_13  and  C_14
REMARK    6  A    between atoms: C_14  and  O_15
REMARK    7  A    between atoms: C_16  and  O_17
REMARK    8  A    between atoms: C_18  and  O_19
REMARK                            x       y       z     vdW  Elec       q    Type
REMARK                         _______ _______ _______ _____ _____    ______ ____
ROOT
ATOM      1  C   UNL     1      -1.149   2.472 -22.280  0.00  0.00    +0.203 A 
ATOM      2  C   UNL     1      -1.487   3.204 -23.300  0.00  0.00    +0.163 A 
ATOM      3  C   UNL     1      -0.585   3.580 -24.157  0.00  0.00    +0.064 A 
ATOM      4  C   UNL     1       0.655   3.224 -23.995  0.00  0.00    +0.072 A 
ATOM      5  C   UNL     1       0.993   2.492 -22.975  0.00  0.00    +0.044 A 
ATOM      6  C   UNL     1       2.232   2.136 -22.812  0.00  0.00    +0.196 C 
ATOM      7  O   UNL     1       2.570   1.405 -21.792  0.00  0.00    -0.360 OA
ATOM      8  C   UNL     1       3.810   1.049 -21.630  0.00  0.00    +0.175 C 
ATOM      9  C   UNL     1       4.712   1.425 -22.487  0.00  0.00    +0.178 C 
ATOM     10  C   UNL     1       4.374   2.156 -23.507  0.00  0.00    +0.189 C 
ATOM     11  C   UNL     1       3.134   2.512 -23.669  0.00  0.00    +0.241 C 
ATOM     12  O   UNL     1       2.797   3.244 -24.690  0.00  0.00    -0.452 OA
ATOM     13  C   UNL     1       1.557   3.600 -24.853  0.00  0.00    +0.340 C 
ATOM     14  O   UNL     1       1.219   4.331 -25.873  0.00  0.00    -0.245 OA
ATOM     15  C   UNL     1       0.091   2.117 -22.118  0.00  0.00    +0.169 A 
ENDROOT
BRANCH   1  17
ATOM     16  C   UNL     1      -2.599   2.970 -20.631  0.00  0.00    +0.277 C 
ATOM     17  O   UNL     1      -2.051   2.096 -21.422  0.00  0.00    -0.489 OA
ENDBRANCH   1  17
BRANCH  10  18
ATOM     18  O   UNL     1       5.276   2.532 -24.365  0.00  0.00    -0.385 OA
ATOM     19  H   UNL     1       6.154   2.265 -24.048  0.00  0.00    +0.210 HD
ENDBRANCH  10  18
BRANCH   9  20
ATOM     20  O   UNL     1       5.952   1.069 -22.324  0.00  0.00    -0.386 OA
ATOM     21  H   UNL     1       6.484   1.404 -23.062  0.00  0.00    +0.210 HD
ENDBRANCH   9  20
BRANCH  15  22
ATOM     22  O   UNL     1       0.429   1.385 -21.097  0.00  0.00    -0.503 OA
ATOM     23  H   UNL     1      -0.068   0.619 -20.884  0.00  0.00    +0.292 HD
ENDBRANCH  15  22
BRANCH   2  24
ATOM     24  O   UNL     1      -2.726   3.560 -23.463  0.00  0.00    -0.503 OA
ATOM     25  H   UNL     1      -3.109   3.549 -24.319  0.00  0.00    +0.292 HD
ENDBRANCH   2  24
BRANCH   8  26
ATOM     26  C   UNL     1       4.148   0.317 -20.610  0.00  0.00    +0.190 C 
BRANCH  26  27
ATOM     27  O   UNL     1       5.146   0.674 -19.856  0.00  0.00    -0.392 OA
ATOM     28  H   UNL     1       4.959   1.539 -19.460  0.00  0.00    +0.210 HD
ENDBRANCH  26  27
ENDBRANCH   8  26
TORSDOF 7
ENDMDL
MODEL 4
REMARK VINA RESULT:    -8.420      1.345      3.748
REMARK INTER + INTRA:         -10.589
REMARK INTER:                 -10.594
REMARK INTRA:                   0.006
REMARK UNBOUND:                 0.046
REMARK  Name = ZINC000004104805
REMARK  8 active torsions:
REMARK  status: ('A' for Active; 'I' for Inactive)
REMARK    1  A    between atoms: C_1  and  O_2
REMARK    2  A    between atoms: O_2  and  C_3
REMARK    3  A    between atoms: C_4  and  O_5
REMARK    4  A    between atoms: C_9  and  O_10
REMARK    5  A    between atoms: C_13  and  C_14
REMARK    6  A    between atoms: C_14  and  O_15
REMARK    7  A    between atoms: C_16  and  O_17
REMARK    8  A    between atoms: C_18  and  O_19
REMARK                            x       y       z     vdW  Elec       q    Type
REMARK                         _______ _______ _______ _____ _____    ______ ____
ROOT
ATOM      1  C   UNL     1      -3.301   3.017 -21.671  0.00  0.00    +0.203 A 
ATOM      2  C   UNL     1      -4.159   3.352 -22.588  0.00  0.00    +0.163 A 
ATOM      3  C   UNL     1      -3.774   3.483 -23.822  0.00  0.00    +0.064 A 
ATOM      4  C   UNL     1      -2.530   3.279 -24.140  0.00  0.00    +0.072 A 
ATOM      5  C   UNL     1      -1.672   2.944 -23.224  0.00  0.00    +0.044 A 
ATOM      6  C   UNL     1      -0.428   2.740 -23.541  0.00  0.00    +0.196 C 
ATOM      7  O   UNL     1       0.431   2.404 -22.625  0.00  0.00    -0.360 OA
ATOM      8  C   UNL     1       1.675   2.200 -22.943  0.00  0.00    +0.175 C 
ATOM      9  C   UNL     1       2.060   2.331 -24.177  0.00  0.00    +0.178 C 
ATOM     10  C   UNL     1       1.202   2.667 -25.093  0.00  0.00    +0.189 C 
ATOM     11  C   UNL     1      -0.042   2.871 -24.776  0.00  0.00    +0.241 C 
ATOM     12  O   UNL     1      -0.901   3.206 -25.693  0.00  0.00    -0.452 OA
ATOM     13  C   UNL     1      -2.145   3.411 -25.375  0.00  0.00    +0.340 C 
ATOM     14  O   UNL     1      -3.004   3.746 -26.292  0.00  0.00    -0.245 OA
ATOM     15  C   UNL     1      -2.057   2.813 -21.989  0.00  0.00    +0.169 A 
ENDROOT
BRANCH   1  17
ATOM     16  C   UNL     1      -3.315   3.755 -19.544  0.00  0.00    +0.277 C 
ATOM     17  O   UNL     1      -3.686   2.886 -20.436  0.00  0.00    -0.489 OA
ENDBRANCH   1  17
BRANCH  10  18
ATOM     18  O   UNL     1       1.587   2.798 -26.329  0.00  0.00    -0.385 OA
ATOM     19  H   UNL     1       1.548   1.936 -26.772  0.00  0.00    +0.210 HD
ENDBRANCH  10  18
BRANCH   9  20
ATOM     20  O   UNL     1       3.304   2.127 -24.495  0.00  0.00    -0.386 OA
ATOM     21  H   UNL     1       3.655   1.390 -23.972  0.00  0.00    +0.210 HD
ENDBRANCH   9  20
BRANCH  15  22
ATOM     22  O   UNL     1      -1.198   2.477 -21.072  0.00  0.00    -0.503 OA
ATOM     23  H   UNL     1      -1.265   2.842 -20.211  0.00  0.00    +0.292 HD
ENDBRANCH  15  22
BRANCH   2  24
ATOM     24  O   UNL     1      -5.403   3.556 -22.270  0.00  0.00    -0.503 OA
ATOM     25  H   UNL     1      -5.910   4.187 -22.743  0.00  0.00    +0.292 HD
ENDBRANCH   2  24
BRANCH   8  26
ATOM     26  C   UNL     1       2.533   1.865 -22.026  0.00  0.00    +0.190 C 
BRANCH  26  27
ATOM     27  O   UNL     1       3.461   2.703 -21.666  0.00  0.00    -0.392 OA
ATOM     28  H   UNL     1       3.509   2.734 -20.698  0.00  0.00    +0.210 HD
ENDBRANCH  26  27
ENDBRANCH   8  26
TORSDOF 7
ENDMDL
MODEL 5
REMARK VINA RESULT:    -8.344      1.398      6.193
REMARK INTER + INTRA:         -10.494
REMARK INTER:                 -10.412
REMARK INTRA:                  -0.081
REMARK UNBOUND:                 0.046
REMARK  Name = ZINC000004104805
REMARK  8 active torsions:
REMARK  status: ('A' for Active; 'I' for Inactive)
REMARK    1  A    between atoms: C_1  and  O_2
REMARK    2  A    between atoms: O_2  and  C_3
REMARK    3  A    between atoms: C_4  and  O_5
REMARK    4  A    between atoms: C_9  and  O_10
REMARK    5  A    between atoms: C_13  and  C_14
REMARK    6  A    between atoms: C_14  and  O_15
REMARK    7  A    between atoms: C_16  and  O_17
REMARK    8  A    between atoms: C_18  and  O_19
REMARK                            x       y       z     vdW  Elec       q    Type
REMARK                         _______ _______ _______ _____ _____    ______ ____
ROOT
ATOM      1  C   UNL     1       2.250   1.146 -22.504  0.00  0.00    +0.203 A 
ATOM      2  C   UNL     1       2.959   1.579 -23.503  0.00  0.00    +0.163 A 
ATOM      3  C   UNL     1       2.430   2.382 -24.376  0.00  0.00    +0.064 A 
ATOM      4  C   UNL     1       1.190   2.753 -24.250  0.00  0.00    +0.072 A 
ATOM      5  C   UNL     1       0.480   2.320 -23.251  0.00  0.00    +0.044 A 
ATOM      6  C   UNL     1      -0.759   2.691 -23.125  0.00  0.00    +0.196 C 
ATOM      7  O   UNL     1      -1.469   2.258 -22.126  0.00  0.00    -0.360 OA
ATOM      8  C   UNL     1      -2.709   2.629 -22.000  0.00  0.00    +0.175 C 
ATOM      9  C   UNL     1      -3.239   3.433 -22.873  0.00  0.00    +0.178 C 
ATOM     10  C   UNL     1      -2.529   3.866 -23.872  0.00  0.00    +0.189 C 
ATOM     11  C   UNL     1      -1.289   3.495 -23.998  0.00  0.00    +0.241 C 
ATOM     12  O   UNL     1      -0.580   3.928 -24.998  0.00  0.00    -0.452 OA
ATOM     13  C   UNL     1       0.660   3.557 -25.124  0.00  0.00    +0.340 C 
ATOM     14  O   UNL     1       1.370   3.990 -26.123  0.00  0.00    -0.245 OA
ATOM     15  C   UNL     1       1.010   1.517 -22.378  0.00  0.00    +0.169 A 
ENDROOT
BRANCH   1  17
ATOM     16  C   UNL     1       3.556   0.813 -20.700  0.00  0.00    +0.277 C 
ATOM     17  O   UNL     1       2.780   0.342 -21.630  0.00  0.00    -0.489 OA
ENDBRANCH   1  17
BRANCH  10  18
ATOM     18  O   UNL     1      -3.059   4.670 -24.746  0.00  0.00    -0.385 OA
ATOM     19  H   UNL     1      -2.378   5.273 -25.084  0.00  0.00    +0.210 HD
ENDBRANCH  10  18
BRANCH   9  20
ATOM     20  O   UNL     1      -4.478   3.803 -22.747  0.00  0.00    -0.386 OA
ATOM     21  H   UNL     1      -5.034   3.025 -22.584  0.00  0.00    +0.210 HD
ENDBRANCH   9  20
BRANCH  15  22
ATOM     22  O   UNL     1       0.300   1.083 -21.378  0.00  0.00    -0.503 OA
ATOM     23  H   UNL     1      -0.636   1.107 -21.422  0.00  0.00    +0.292 HD
ENDBRANCH  15  22
BRANCH   2  24
ATOM     24  O   UNL     1       4.199   1.208 -23.629  0.00  0.00    -0.503 OA
ATOM     25  H   UNL     1       4.585   1.144 -24.481  0.00  0.00    +0.292 HD
ENDBRANCH   2  24
BRANCH   8  26
ATOM     26  C   UNL     1      -3.419   2.196 -21.001  0.00  0.00    +0.190 C 
BRANCH  26  27
ATOM     27  O   UNL     1      -3.656   2.974 -19.986  0.00  0.00    -0.392 OA
ATOM     28  H   UNL     1      -2.941   2.888 -19.338  0.00  0.00    +0.210 HD
ENDBRANCH  26  27
ENDBRANCH   8  26
TORSDOF 7
ENDMDL
MODEL 6
REMARK VINA RESULT:    -7.945      1.230      5.205
REMARK INTER + INTRA:          -9.989
REMARK INTER:                  -9.867
REMARK INTRA:                  -0.122
REMARK UNBOUND:                 0.046
REMARK  Name = ZINC000004104805
REMARK  8 active torsions:
REMARK  status: ('A' for Active; 'I' for Inactive)
REMARK    1  A    between atoms: C_1  and  O_2
REMARK    2  A    between atoms: O_2  and  C_3
REMARK    3  A    between atoms: C_4  and  O_5
REMARK    4  A    between atoms: C_9  and  O_10
REMARK    5  A    between atoms: C_13  and  C_14
REMARK    6  A    between atoms: C_14  and  O_15
REMARK    7  A    between atoms: C_16  and  O_17
REMARK    8  A    between atoms: C_18  and  O_19
REMARK                            x       y       z     vdW  Elec       q    Type
REMARK                         _______ _______ _______ _____ _____    ______ ____
ROOT
ATOM      1  C   UNL     1       1.475   2.353 -24.642  0.00  0.00    +0.203 A 
ATOM      2  C   UNL     1       2.146   1.886 -23.632  0.00  0.00    +0.163 A 
ATOM      3  C   UNL     1       1.560   1.718 -22.484  0.00  0.00    +0.064 A 
ATOM      4  C   UNL     1       0.302   2.017 -22.347  0.00  0.00    +0.072 A 
ATOM      5  C   UNL     1      -0.369   2.484 -23.358  0.00  0.00    +0.044 A 
ATOM      6  C   UNL     1      -1.627   2.783 -23.220  0.00  0.00    +0.196 C 
ATOM      7  O   UNL     1      -2.298   3.250 -24.231  0.00  0.00    -0.360 OA
ATOM      8  C   UNL     1      -3.556   3.549 -24.093  0.00  0.00    +0.175 C 
ATOM      9  C   UNL     1      -4.142   3.381 -22.946  0.00  0.00    +0.178 C 
ATOM     10  C   UNL     1      -3.471   2.915 -21.935  0.00  0.00    +0.189 C 
ATOM     11  C   UNL     1      -2.213   2.616 -22.073  0.00  0.00    +0.241 C 
ATOM     12  O   UNL     1      -1.542   2.148 -21.061  0.00  0.00    -0.452 OA
ATOM     13  C   UNL     1      -0.284   1.849 -21.199  0.00  0.00    +0.340 C 
ATOM     14  O   UNL     1       0.387   1.383 -20.188  0.00  0.00    -0.245 OA
ATOM     15  C   UNL     1       0.217   2.652 -24.505  0.00  0.00    +0.169 A 
ENDROOT
BRANCH   1  17
ATOM     16  C   UNL     1       2.076   1.555 -26.661  0.00  0.00    +0.277 C 
ATOM     17  O   UNL     1       2.061   2.521 -25.791  0.00  0.00    -0.489 OA
ENDBRANCH   1  17
BRANCH  10  18
ATOM     18  O   UNL     1      -4.057   2.747 -20.787  0.00  0.00    -0.385 OA
ATOM     19  H   UNL     1      -4.898   2.281 -20.919  0.00  0.00    +0.210 HD
ENDBRANCH  10  18
BRANCH   9  20
ATOM     20  O   UNL     1      -5.400   3.681 -22.809  0.00  0.00    -0.386 OA
ATOM     21  H   UNL     1      -5.495   4.381 -22.145  0.00  0.00    +0.210 HD
ENDBRANCH   9  20
BRANCH  15  22
ATOM     22  O   UNL     1      -0.454   3.119 -25.517  0.00  0.00    -0.503 OA
ATOM     23  H   UNL     1      -0.397   2.698 -26.352  0.00  0.00    +0.292 HD
ENDBRANCH  15  22
BRANCH   2  24
ATOM     24  O   UNL     1       3.404   1.587 -23.769  0.00  0.00    -0.503 OA
ATOM     25  H   UNL     1       3.795   0.939 -23.216  0.00  0.00    +0.292 HD
ENDBRANCH   2  24
BRANCH   8  26
ATOM     26  C   UNL     1      -4.227   4.016 -25.104  0.00  0.00    +0.190 C 
BRANCH  26  27
ATOM     27  O   UNL     1      -4.493   5.287 -25.177  0.00  0.00    -0.392 OA
ATOM     28  H   UNL     1      -4.403   5.687 -24.298  0.00  0.00    +0.210 HD
ENDBRANCH  26  27
ENDBRANCH   8  26
TORSDOF 7
ENDMDL
MODEL 7
REMARK VINA RESULT:    -7.768      2.898      6.480
REMARK INTER + INTRA:          -9.766
REMARK INTER:                  -9.830
REMARK INTRA:                   0.065
REMARK UNBOUND:                 0.046
REMARK  Name = ZINC000004104805
REMARK  8 active torsions:
REMARK  status: ('A' for Active; 'I' for Inactive)
REMARK    1  A    between atoms: C_1  and  O_2
REMARK    2  A    between atoms: O_2  and  C_3
REMARK    3  A    between atoms: C_4  and  O_5
REMARK    4  A    between atoms: C_9  and  O_10
REMARK    5  A    between atoms: C_13  and  C_14
REMARK    6  A    between atoms: C_14  and  O_15
REMARK    7  A    between atoms: C_16  and  O_17
REMARK    8  A    between atoms: C_18  and  O_19
REMARK                            x       y       z     vdW  Elec       q    Type
REMARK                         _______ _______ _______ _____ _____    ______ ____
ROOT
ATOM      1  C   UNL     1       5.237   3.848 -22.771  0.00  0.00    +0.203 A 
ATOM      2  C   UNL     1       5.857   2.872 -22.176  0.00  0.00    +0.163 A 
ATOM      3  C   UNL     1       5.181   1.877 -21.683  0.00  0.00    +0.064 A 
ATOM      4  C   UNL     1       3.885   1.858 -21.787  0.00  0.00    +0.072 A 
ATOM      5  C   UNL     1       3.265   2.833 -22.382  0.00  0.00    +0.044 A 
ATOM      6  C   UNL     1       1.970   2.813 -22.485  0.00  0.00    +0.196 C 
ATOM      7  O   UNL     1       1.350   3.789 -23.080  0.00  0.00    -0.360 OA
ATOM      8  C   UNL     1       0.054   3.769 -23.184  0.00  0.00    +0.175 C 
ATOM      9  C   UNL     1      -0.622   2.774 -22.691  0.00  0.00    +0.178 C 
ATOM     10  C   UNL     1      -0.002   1.799 -22.096  0.00  0.00    +0.189 C 
ATOM     11  C   UNL     1       1.294   1.818 -21.993  0.00  0.00    +0.241 C 
ATOM     12  O   UNL     1       1.913   0.842 -21.397  0.00  0.00    -0.452 OA
ATOM     13  C   UNL     1       3.209   0.862 -21.294  0.00  0.00    +0.340 C 
ATOM     14  O   UNL     1       3.829  -0.113 -20.699  0.00  0.00    -0.245 OA
ATOM     15  C   UNL     1       3.942   3.828 -22.874  0.00  0.00    +0.169 A 
ENDROOT
BRANCH   1  17
ATOM     16  C   UNL     1       6.281   5.824 -22.493  0.00  0.00    +0.277 C 
ATOM     17  O   UNL     1       5.913   4.843 -23.263  0.00  0.00    -0.489 OA
ENDBRANCH   1  17
BRANCH  10  18
ATOM     18  O   UNL     1      -0.678   0.803 -21.604  0.00  0.00    -0.385 OA
ATOM     19  H   UNL     1      -0.500   0.003 -22.124  0.00  0.00    +0.210 HD
ENDBRANCH  10  18
BRANCH   9  20
ATOM     20  O   UNL     1      -1.918   2.754 -22.795  0.00  0.00    -0.386 OA
ATOM     21  H   UNL     1      -2.289   2.192 -22.097  0.00  0.00    +0.210 HD
ENDBRANCH   9  20
BRANCH  15  22
ATOM     22  O   UNL     1       3.322   4.804 -23.470  0.00  0.00    -0.503 OA
ATOM     23  H   UNL     1       3.081   5.570 -22.987  0.00  0.00    +0.292 HD
ENDBRANCH  15  22
BRANCH   2  24
ATOM     24  O   UNL     1       7.153   2.892 -22.072  0.00  0.00    -0.503 OA
ATOM     25  H   UNL     1       7.566   2.564 -21.298  0.00  0.00    +0.292 HD
ENDBRANCH   2  24
BRANCH   8  26
ATOM     26  C   UNL     1      -0.565   4.744 -23.779  0.00  0.00    +0.190 C 
BRANCH  26  27
ATOM     27  O   UNL     1      -0.331   5.974 -23.428  0.00  0.00    -0.392 OA
ATOM     28  H   UNL     1      -1.047   6.544 -23.749  0.00  0.00    +0.210 HD
ENDBRANCH  26  27
ENDBRANCH   8  26
TORSDOF 7
ENDMDL
MODEL 8
REMARK VINA RESULT:    -7.627      3.751      5.601
REMARK INTER + INTRA:          -9.588
REMARK INTER:                  -9.502
REMARK INTRA:                  -0.086
REMARK UNBOUND:                 0.046
REMARK  Name = ZINC000004104805
REMARK  8 active torsions:
REMARK  status: ('A' for Active; 'I' for Inactive)
REMARK    1  A    between atoms: C_1  and  O_2
REMARK    2  A    between atoms: O_2  and  C_3
REMARK    3  A    between atoms: C_4  and  O_5
REMARK    4  A    between atoms: C_9  and  O_10
REMARK    5  A    between atoms: C_13  and  C_14
REMARK    6  A    between atoms: C_14  and  O_15
REMARK    7  A    between atoms: C_16  and  O_17
REMARK    8  A    between atoms: C_18  and  O_19
REMARK                            x       y       z     vdW  Elec       q    Type
REMARK                         _______ _______ _______ _____ _____    ______ ____
ROOT
ATOM      1  C   UNL     1       0.853   4.437 -23.922  0.00  0.00    +0.203 A 
ATOM      2  C   UNL     1       0.546   3.272 -24.412  0.00  0.00    +0.163 A 
ATOM      3  C   UNL     1       1.455   2.348 -24.507  0.00  0.00    +0.064 A 
ATOM      4  C   UNL     1       2.670   2.588 -24.112  0.00  0.00    +0.072 A 
ATOM      5  C   UNL     1       2.976   3.752 -23.622  0.00  0.00    +0.044 A 
ATOM      6  C   UNL     1       4.191   3.992 -23.227  0.00  0.00    +0.196 C 
ATOM      7  O   UNL     1       4.498   5.156 -22.737  0.00  0.00    -0.360 OA
ATOM      8  C   UNL     1       5.713   5.396 -22.342  0.00  0.00    +0.175 C 
ATOM      9  C   UNL     1       6.622   4.471 -22.437  0.00  0.00    +0.178 C 
ATOM     10  C   UNL     1       6.315   3.307 -22.927  0.00  0.00    +0.189 C 
ATOM     11  C   UNL     1       5.100   3.067 -23.322  0.00  0.00    +0.241 C 
ATOM     12  O   UNL     1       4.794   1.902 -23.812  0.00  0.00    -0.452 OA
ATOM     13  C   UNL     1       3.579   1.662 -24.207  0.00  0.00    +0.340 C 
ATOM     14  O   UNL     1       3.272   0.498 -24.697  0.00  0.00    -0.245 OA
ATOM     15  C   UNL     1       2.068   4.676 -23.527  0.00  0.00    +0.169 A 
ENDROOT
BRANCH   1  17
ATOM     16  C   UNL     1      -0.911   5.335 -22.848  0.00  0.00    +0.277 C 
ATOM     17  O   UNL     1      -0.056   5.362 -23.827  0.00  0.00    -0.489 OA
ENDBRANCH   1  17
BRANCH  10  18
ATOM     18  O   UNL     1       7.224   2.381 -23.022  0.00  0.00    -0.385 OA
ATOM     19  H   UNL     1       7.050   1.838 -23.806  0.00  0.00    +0.210 HD
ENDBRANCH  10  18
BRANCH   9  20
ATOM     20  O   UNL     1       7.837   4.711 -22.042  0.00  0.00    -0.386 OA
ATOM     21  H   UNL     1       8.364   5.026 -22.792  0.00  0.00    +0.210 HD
ENDBRANCH   9  20
BRANCH  15  22
ATOM     22  O   UNL     1       2.374   5.841 -23.037  0.00  0.00    -0.503 OA
ATOM     23  H   UNL     1       3.165   5.950 -22.546  0.00  0.00    +0.292 HD
ENDBRANCH  15  22
BRANCH   2  24
ATOM     24  O   UNL     1      -0.669   3.032 -24.807  0.00  0.00    -0.503 OA
ATOM     25  H   UNL     1      -0.926   2.159 -25.027  0.00  0.00    +0.292 HD
ENDBRANCH   2  24
BRANCH   8  26
ATOM     26  C   UNL     1       6.020   6.560 -21.852  0.00  0.00    +0.190 C 
BRANCH  26  27
ATOM     27  O   UNL     1       6.142   6.713 -20.566  0.00  0.00    -0.392 OA
ATOM     28  H   UNL     1       5.262   6.764 -20.162  0.00  0.00    +0.210 HD
ENDBRANCH  26  27
ENDBRANCH   8  26
TORSDOF 7
ENDMDL
MODEL 9
REMARK VINA RESULT:    -7.487      1.583      5.909
REMARK INTER + INTRA:          -9.410
REMARK INTER:                  -9.456
REMARK INTRA:                   0.046
REMARK UNBOUND:                 0.046
REMARK  Name = ZINC000004104805
REMARK  8 active torsions:
REMARK  status: ('A' for Active; 'I' for Inactive)
REMARK    1  A    between atoms: C_1  and  O_2
REMARK    2  A    between atoms: O_2  and  C_3
REMARK    3  A    between atoms: C_4  and  O_5
REMARK    4  A    between atoms: C_9  and  O_10
REMARK    5  A    between atoms: C_13  and  C_14
REMARK    6  A    between atoms: C_14  and  O_15
REMARK    7  A    between atoms: C_16  and  O_17
REMARK    8  A    between atoms: C_18  and  O_19
REMARK                            x       y       z     vdW  Elec       q    Type
REMARK                         _______ _______ _______ _____ _____    ______ ____
ROOT
ATOM      1  C   UNL     1       0.787   2.975 -23.836  0.00  0.00    +0.203 A 
ATOM      2  C   UNL     1       0.855   3.109 -25.127  0.00  0.00    +0.163 A 
ATOM      3  C   UNL     1      -0.230   3.295 -25.818  0.00  0.00    +0.064 A 
ATOM      4  C   UNL     1      -1.382   3.347 -25.219  0.00  0.00    +0.072 A 
ATOM      5  C   UNL     1      -1.450   3.212 -23.928  0.00  0.00    +0.044 A 
ATOM      6  C   UNL     1      -2.603   3.264 -23.329  0.00  0.00    +0.196 C 
ATOM      7  O   UNL     1      -2.671   3.130 -22.038  0.00  0.00    -0.360 OA
ATOM      8  C   UNL     1      -3.823   3.182 -21.438  0.00  0.00    +0.175 C 
ATOM      9  C   UNL     1      -4.908   3.368 -22.130  0.00  0.00    +0.178 C 
ATOM     10  C   UNL     1      -4.840   3.502 -23.421  0.00  0.00    +0.189 C 
ATOM     11  C   UNL     1      -3.687   3.450 -24.020  0.00  0.00    +0.241 C 
ATOM     12  O   UNL     1      -3.620   3.585 -25.312  0.00  0.00    -0.452 OA
ATOM     13  C   UNL     1      -2.467   3.533 -25.912  0.00  0.00    +0.340 C 
ATOM     14  O   UNL     1      -2.399   3.667 -27.203  0.00  0.00    -0.245 OA
ATOM     15  C   UNL     1      -0.366   3.026 -23.236  0.00  0.00    +0.169 A 
ENDROOT
BRANCH   1  17
ATOM     16  C   UNL     1       2.285   1.581 -22.895  0.00  0.00    +0.277 C 
ATOM     17  O   UNL     1       1.872   2.788 -23.143  0.00  0.00    -0.489 OA
ENDBRANCH   1  17
BRANCH  10  18
ATOM     18  O   UNL     1      -5.925   3.688 -24.113  0.00  0.00    -0.385 OA
ATOM     19  H   UNL     1      -6.440   2.866 -24.133  0.00  0.00    +0.210 HD
ENDBRANCH  10  18
BRANCH   9  20
ATOM     20  O   UNL     1      -6.060   3.419 -21.530  0.00  0.00    -0.386 OA
ATOM     21  H   UNL     1      -5.964   3.104 -20.618  0.00  0.00    +0.210 HD
ENDBRANCH   9  20
BRANCH  15  22
ATOM     22  O   UNL     1      -0.433   2.892 -21.944  0.00  0.00    -0.503 OA
ATOM     23  H   UNL     1      -0.310   2.049 -21.554  0.00  0.00    +0.292 HD
ENDBRANCH  15  22
BRANCH   2  24
ATOM     24  O   UNL     1       2.007   3.057 -25.726  0.00  0.00    -0.503 OA
ATOM     25  H   UNL     1       2.065   2.731 -26.603  0.00  0.00    +0.292 HD
ENDBRANCH   2  24
BRANCH   8  26
ATOM     26  C   UNL     1      -3.891   3.047 -20.147  0.00  0.00    +0.190 C 
BRANCH  26  27
ATOM     27  O   UNL     1      -3.180   3.815 -19.375  0.00  0.00    -0.392 OA
ATOM     28  H   UNL     1      -3.765   4.420 -18.893  0.00  0.00    +0.210 HD
ENDBRANCH  26  27
ENDBRANCH   8  26
TORSDOF 7
ENDMDL
