MODEL 1
REMARK VINA RESULT:    -8.759      0.000      0.000
REMARK INTER + INTRA:          -8.212
REMARK INTER:                 -11.462
REMARK INTRA:                   3.249
REMARK UNBOUND:                 3.618
REMARK  Name = ZINC000000199438
REMARK  11 active torsions:
REMARK  status: ('A' for Active; 'I' for Inactive)
REMARK    1  A    between atoms: C_1  and  O_2
REMARK    2  A    between atoms: O_2  and  C_3
REMARK    3  A    between atoms: C_12  and  C_13
REMARK    4  A    between atoms: C_12  and  O_19
REMARK    5  A    between atoms: C_13  and  C_14
REMARK    6  A    between atoms: C_14  and  C_15
REMARK    7  A    between atoms: C_15  and  C_16
REMARK    8  A    between atoms: C_15  and  C_17
REMARK    9  A    between atoms: C_15  and  O_18
REMARK   10  A    between atoms: O_19  and  C_20
REMARK   11  A    between atoms: C_21  and  O_22
REMARK                            x       y       z     vdW  Elec       q    Type
REMARK                         _______ _______ _______ _____ _____    ______ ____
ROOT
ATOM      1  C   UNL     1       3.448   2.317 -23.254  0.00  0.00    +0.137 A 
ATOM      2  C   UNL     1       2.267   2.779 -23.537  0.00  0.00    +0.019 A 
ATOM      3  C   UNL     1       1.257   2.480 -22.775  0.00  0.00    +0.086 A 
ATOM      4  C   UNL     1       0.073   2.942 -23.057  0.00  0.00    +0.137 C 
ATOM      5  C   UNL     1      -0.095   3.699 -24.099  0.00  0.00    +0.153 C 
ATOM      6  C   UNL     1       0.914   3.997 -24.861  0.00  0.00    +0.039 C 
ATOM      7  N   UNL     1       1.426   1.723 -21.734  0.00  0.00    -0.214 NA
ATOM      8  C   UNL     1       2.609   1.263 -21.454  0.00  0.00    +0.231 A 
ATOM      9  O   UNL     1       3.038   0.501 -20.490  0.00  0.00    -0.445 OA
ATOM     10  C   UNL     1       4.315   0.329 -20.657  0.00  0.00    +0.198 A 
ATOM     11  C   UNL     1       4.676   0.982 -21.721  0.00  0.00    +0.055 A 
ATOM     12  C   UNL     1       2.096   3.535 -24.577  0.00  0.00    +0.043 C 
ATOM     13  C   UNL     1       3.620   1.559 -22.212  0.00  0.00    +0.082 A 
ENDROOT
BRANCH   5  14
ATOM     14  O   UNL     1      -1.278   4.160 -24.381  0.00  0.00    -0.389 OA
ATOM     15  H   UNL     1      -1.657   4.580 -23.593  0.00  0.00    +0.210 HD
ENDBRANCH   5  14
BRANCH   4  16
ATOM     16  O   UNL     1      -0.181   2.240 -21.958  0.00  0.00    -0.368 OA
ATOM     17  C   UNL     1      -0.860   1.132 -22.006  0.00  0.00    +0.195 C 
ENDBRANCH   4  16
BRANCH   1  19
ATOM     18  C   UNL     1       5.354   3.462 -23.604  0.00  0.00    +0.277 C 
ATOM     19  O   UNL     1       4.460   2.614 -24.015  0.00  0.00    -0.494 OA
ENDBRANCH   1  19
BRANCH   4  20
ATOM     20  C   UNL     1      -1.209   3.175 -22.976  0.00  0.00    +0.047 C 
BRANCH  20  21
ATOM     21  C   UNL     1      -1.670   3.942 -22.057  0.00  0.00    +0.037 C 
BRANCH  21  22
ATOM     22  C   UNL     1      -2.833   3.727 -21.530  0.00  0.00    +0.061 C 
ATOM     23  C   UNL     1      -2.972   3.773 -20.238  0.00  0.00    +0.041 C 
ATOM     24  C   UNL     1      -4.095   3.454 -21.655  0.00  0.00    +0.041 C 
BRANCH  22  25
ATOM     25  O   UNL     1      -3.342   3.551 -22.710  0.00  0.00    -0.389 OA
ATOM     26  H   UNL     1      -4.245   3.207 -22.625  0.00  0.00    +0.210 HD
ENDBRANCH  22  25
ENDBRANCH  21  22
ENDBRANCH  20  21
ENDBRANCH   4  20
TORSDOF 7
ENDMDL
MODEL 2
REMARK VINA RESULT:    -8.466      1.810      6.397
REMARK INTER + INTRA:          -7.817
REMARK INTER:                 -11.160
REMARK INTRA:                   3.343
REMARK UNBOUND:                 3.618
REMARK  Name = ZINC000000199438
REMARK  11 active torsions:
REMARK  status: ('A' for Active; 'I' for Inactive)
REMARK    1  A    between atoms: C_1  and  O_2
REMARK    2  A    between atoms: O_2  and  C_3
REMARK    3  A    between atoms: C_12  and  C_13
REMARK    4  A    between atoms: C_12  and  O_19
REMARK    5  A    between atoms: C_13  and  C_14
REMARK    6  A    between atoms: C_14  and  C_15
REMARK    7  A    between atoms: C_15  and  C_16
REMARK    8  A    between atoms: C_15  and  C_17
REMARK    9  A    between atoms: C_15  and  O_18
REMARK   10  A    between atoms: O_19  and  C_20
REMARK   11  A    between atoms: C_21  and  O_22
REMARK                            x       y       z     vdW  Elec       q    Type
REMARK                         _______ _______ _______ _____ _____    ______ ____
ROOT
ATOM      1  C   UNL     1      -2.462   2.659 -22.560  0.00  0.00    +0.137 A 
ATOM      2  C   UNL     1      -1.192   2.435 -22.408  0.00  0.00    +0.019 A 
ATOM      3  C   UNL     1      -0.350   2.856 -23.304  0.00  0.00    +0.086 A 
ATOM      4  C   UNL     1       0.924   2.633 -23.155  0.00  0.00    +0.137 C 
ATOM      5  C   UNL     1       1.350   1.990 -22.109  0.00  0.00    +0.153 C 
ATOM      6  C   UNL     1       0.508   1.568 -21.214  0.00  0.00    +0.039 C 
ATOM      7  N   UNL     1      -0.776   3.500 -24.349  0.00  0.00    -0.214 NA
ATOM      8  C   UNL     1      -2.047   3.722 -24.497  0.00  0.00    +0.231 A 
ATOM      9  O   UNL     1      -2.720   4.329 -25.432  0.00  0.00    -0.445 OA
ATOM     10  C   UNL     1      -3.978   4.282 -25.112  0.00  0.00    +0.198 A 
ATOM     11  C   UNL     1      -4.086   3.648 -23.983  0.00  0.00    +0.055 A 
ATOM     12  C   UNL     1      -0.763   1.792 -21.366  0.00  0.00    +0.043 C 
ATOM     13  C   UNL     1      -2.892   3.303 -23.605  0.00  0.00    +0.082 A 
ENDROOT
BRANCH   5  14
ATOM     14  O   UNL     1       2.622   1.766 -21.959  0.00  0.00    -0.389 OA
ATOM     15  H   UNL     1       3.121   2.306 -22.592  0.00  0.00    +0.210 HD
ENDBRANCH   5  14
BRANCH   4  16
ATOM     16  O   UNL     1       0.914   3.294 -24.308  0.00  0.00    -0.368 OA
ATOM     17  C   UNL     1       1.246   2.711 -25.422  0.00  0.00    +0.195 C 
ENDBRANCH   4  16
BRANCH   1  19
ATOM     18  C   UNL     1      -3.701   3.036 -20.718  0.00  0.00    +0.277 C 
ATOM     19  O   UNL     1      -3.306   2.238 -21.664  0.00  0.00    -0.494 OA
ENDBRANCH   1  19
BRANCH   4  20
ATOM     20  C   UNL     1       2.209   2.627 -23.387  0.00  0.00    +0.047 C 
BRANCH  20  21
ATOM     21  C   UNL     1       2.832   3.728 -23.599  0.00  0.00    +0.037 C 
BRANCH  21  22
ATOM     22  C   UNL     1       4.115   3.809 -23.443  0.00  0.00    +0.061 C 
ATOM     23  C   UNL     1       4.629   4.856 -22.869  0.00  0.00    +0.041 C 
ATOM     24  C   UNL     1       5.303   3.308 -23.590  0.00  0.00    +0.041 C 
BRANCH  22  25
ATOM     25  O   UNL     1       4.263   2.653 -24.014  0.00  0.00    -0.389 OA
ATOM     26  H   UNL     1       5.018   2.191 -23.617  0.00  0.00    +0.210 HD
ENDBRANCH  22  25
ENDBRANCH  21  22
ENDBRANCH  20  21
ENDBRANCH   4  20
TORSDOF 7
ENDMDL
MODEL 3
REMARK VINA RESULT:    -8.434      1.832      6.017
REMARK INTER + INTRA:          -7.774
REMARK INTER:                 -10.918
REMARK INTRA:                   3.144
REMARK UNBOUND:                 3.618
REMARK  Name = ZINC000000199438
REMARK  11 active torsions:
REMARK  status: ('A' for Active; 'I' for Inactive)
REMARK    1  A    between atoms: C_1  and  O_2
REMARK    2  A    between atoms: O_2  and  C_3
REMARK    3  A    between atoms: C_12  and  C_13
REMARK    4  A    between atoms: C_12  and  O_19
REMARK    5  A    between atoms: C_13  and  C_14
REMARK    6  A    between atoms: C_14  and  C_15
REMARK    7  A    between atoms: C_15  and  C_16
REMARK    8  A    between atoms: C_15  and  C_17
REMARK    9  A    between atoms: C_15  and  O_18
REMARK   10  A    between atoms: O_19  and  C_20
REMARK   11  A    between atoms: C_21  and  O_22
REMARK                            x       y       z     vdW  Elec       q    Type
REMARK                         _______ _______ _______ _____ _____    ______ ____
ROOT
ATOM      1  C   UNL     1      -3.306   3.615 -24.109  0.00  0.00    +0.137 A 
ATOM      2  C   UNL     1      -2.036   3.424 -24.307  0.00  0.00    +0.019 A 
ATOM      3  C   UNL     1      -1.302   2.926 -23.357  0.00  0.00    +0.086 A 
ATOM      4  C   UNL     1      -0.030   2.733 -23.553  0.00  0.00    +0.137 C 
ATOM      5  C   UNL     1       0.502   3.039 -24.698  0.00  0.00    +0.153 C 
ATOM      6  C   UNL     1      -0.232   3.536 -25.647  0.00  0.00    +0.039 C 
ATOM      7  N   UNL     1      -1.835   2.621 -22.212  0.00  0.00    -0.214 NA
ATOM      8  C   UNL     1      -3.105   2.814 -22.018  0.00  0.00    +0.231 A 
ATOM      9  O   UNL     1      -3.869   2.598 -20.986  0.00  0.00    -0.445 OA
ATOM     10  C   UNL     1      -5.076   2.963 -21.300  0.00  0.00    +0.198 A 
ATOM     11  C   UNL     1      -5.060   3.403 -22.522  0.00  0.00    +0.055 A 
ATOM     12  C   UNL     1      -1.502   3.728 -25.449  0.00  0.00    +0.043 C 
ATOM     13  C   UNL     1      -3.842   3.311 -22.964  0.00  0.00    +0.082 A 
ENDROOT
BRANCH   5  14
ATOM     14  O   UNL     1       1.773   2.846 -24.894  0.00  0.00    -0.389 OA
ATOM     15  H   UNL     1       2.073   3.395 -25.634  0.00  0.00    +0.210 HD
ENDBRANCH   5  14
BRANCH   4  16
ATOM     16  O   UNL     1      -0.164   2.307 -22.301  0.00  0.00    -0.368 OA
ATOM     17  C   UNL     1      -0.008   1.052 -21.995  0.00  0.00    +0.195 C 
ENDBRANCH   4  16
BRANCH   1  19
ATOM     18  C   UNL     1      -4.673   3.322 -25.874  0.00  0.00    +0.277 C 
ATOM     19  O   UNL     1      -4.042   4.113 -25.059  0.00  0.00    -0.494 OA
ENDBRANCH   1  19
BRANCH   4  20
ATOM     20  C   UNL     1       1.212   2.396 -23.334  0.00  0.00    +0.047 C 
BRANCH  20  21
ATOM     21  C   UNL     1       1.911   3.031 -22.466  0.00  0.00    +0.037 C 
BRANCH  21  22
ATOM     22  C   UNL     1       3.181   2.809 -22.340  0.00  0.00    +0.061 C 
ATOM     23  C   UNL     1       3.595   1.640 -21.952  0.00  0.00    +0.041 C 
ATOM     24  C   UNL     1       4.410   3.218 -22.416  0.00  0.00    +0.041 C 
BRANCH  22  25
ATOM     25  O   UNL     1       3.435   4.025 -22.715  0.00  0.00    -0.389 OA
ATOM     26  H   UNL     1       2.602   4.507 -22.837  0.00  0.00    +0.210 HD
ENDBRANCH  22  25
ENDBRANCH  21  22
ENDBRANCH  20  21
ENDBRANCH   4  20
TORSDOF 7
ENDMDL
MODEL 4
REMARK VINA RESULT:    -8.320      1.775      3.351
REMARK INTER + INTRA:          -7.620
REMARK INTER:                 -11.316
REMARK INTRA:                   3.697
REMARK UNBOUND:                 3.618
REMARK  Name = ZINC000000199438
REMARK  11 active torsions:
REMARK  status: ('A' for Active; 'I' for Inactive)
REMARK    1  A    between atoms: C_1  and  O_2
REMARK    2  A    between atoms: O_2  and  C_3
REMARK    3  A    between atoms: C_12  and  C_13
REMARK    4  A    between atoms: C_12  and  O_19
REMARK    5  A    between atoms: C_13  and  C_14
REMARK    6  A    between atoms: C_14  and  C_15
REMARK    7  A    between atoms: C_15  and  C_16
REMARK    8  A    between atoms: C_15  and  C_17
REMARK    9  A    between atoms: C_15  and  O_18
REMARK   10  A    between atoms: O_19  and  C_20
REMARK   11  A    between atoms: C_21  and  O_22
REMARK                            x       y       z     vdW  Elec       q    Type
REMARK                         _______ _______ _______ _____ _____    ______ ____
ROOT
ATOM      1  C   UNL     1       2.357   1.905 -21.639  0.00  0.00    +0.137 A 
ATOM      2  C   UNL     1       1.093   2.038 -21.907  0.00  0.00    +0.019 A 
ATOM      3  C   UNL     1       0.708   2.909 -22.793  0.00  0.00    +0.086 A 
ATOM      4  C   UNL     1      -0.558   3.044 -23.063  0.00  0.00    +0.137 C 
ATOM      5  C   UNL     1      -1.433   2.308 -22.447  0.00  0.00    +0.153 C 
ATOM      6  C   UNL     1      -1.049   1.439 -21.562  0.00  0.00    +0.039 C 
ATOM      7  N   UNL     1       1.584   3.644 -23.409  0.00  0.00    -0.214 NA
ATOM      8  C   UNL     1       2.848   3.507 -23.138  0.00  0.00    +0.231 A 
ATOM      9  O   UNL     1       3.905   4.107 -23.603  0.00  0.00    -0.445 OA
ATOM     10  C   UNL     1       4.944   3.607 -23.003  0.00  0.00    +0.198 A 
ATOM     11  C   UNL     1       4.531   2.700 -22.170  0.00  0.00    +0.055 A 
ATOM     12  C   UNL     1       0.216   1.305 -21.293  0.00  0.00    +0.043 C 
ATOM     13  C   UNL     1       3.236   2.640 -22.254  0.00  0.00    +0.082 A 
ENDROOT
BRANCH   5  14
ATOM     14  O   UNL     1      -2.698   2.443 -22.717  0.00  0.00    -0.389 OA
ATOM     15  H   UNL     1      -2.885   2.064 -23.589  0.00  0.00    +0.210 HD
ENDBRANCH   5  14
BRANCH   4  16
ATOM     16  O   UNL     1      -0.024   3.947 -23.879  0.00  0.00    -0.368 OA
ATOM     17  C   UNL     1      -0.071   5.217 -23.604  0.00  0.00    +0.195 C 
ENDBRANCH   4  16
BRANCH   1  19
ATOM     18  C   UNL     1       3.779   0.286 -20.988  0.00  0.00    +0.277 C 
ATOM     19  O   UNL     1       2.743   1.034 -20.753  0.00  0.00    -0.494 OA
ENDBRANCH   1  19
BRANCH   4  20
ATOM     20  C   UNL     1      -1.661   3.482 -23.608  0.00  0.00    +0.047 C 
BRANCH  20  21
ATOM     21  C   UNL     1      -1.820   3.425 -24.880  0.00  0.00    +0.037 C 
BRANCH  21  22
ATOM     22  C   UNL     1      -2.916   3.834 -25.434  0.00  0.00    +0.061 C 
ATOM     23  C   UNL     1      -3.253   3.381 -26.605  0.00  0.00    +0.041 C 
ATOM     24  C   UNL     1      -3.989   4.564 -25.409  0.00  0.00    +0.041 C 
BRANCH  22  25
ATOM     25  O   UNL     1      -3.159   4.590 -24.408  0.00  0.00    -0.389 OA
ATOM     26  H   UNL     1      -2.942   5.510 -24.626  0.00  0.00    +0.210 HD
ENDBRANCH  22  25
ENDBRANCH  21  22
ENDBRANCH  20  21
ENDBRANCH   4  20
TORSDOF 7
ENDMDL
MODEL 5
REMARK VINA RESULT:    -7.386      2.074      6.873
REMARK INTER + INTRA:          -6.358
REMARK INTER:                  -9.813
REMARK INTRA:                   3.455
REMARK UNBOUND:                 3.618
REMARK  Name = ZINC000000199438
REMARK  11 active torsions:
REMARK  status: ('A' for Active; 'I' for Inactive)
REMARK    1  A    between atoms: C_1  and  O_2
REMARK    2  A    between atoms: O_2  and  C_3
REMARK    3  A    between atoms: C_12  and  C_13
REMARK    4  A    between atoms: C_12  and  O_19
REMARK    5  A    between atoms: C_13  and  C_14
REMARK    6  A    between atoms: C_14  and  C_15
REMARK    7  A    between atoms: C_15  and  C_16
REMARK    8  A    between atoms: C_15  and  C_17
REMARK    9  A    between atoms: C_15  and  O_18
REMARK   10  A    between atoms: O_19  and  C_20
REMARK   11  A    between atoms: C_21  and  O_22
REMARK                            x       y       z     vdW  Elec       q    Type
REMARK                         _______ _______ _______ _____ _____    ______ ____
ROOT
ATOM      1  C   UNL     1       1.009   2.200 -22.748  0.00  0.00    +0.137 A 
ATOM      2  C   UNL     1       2.291   2.026 -22.639  0.00  0.00    +0.019 A 
ATOM      3  C   UNL     1       3.102   3.000 -22.933  0.00  0.00    +0.086 A 
ATOM      4  C   UNL     1       4.388   2.829 -22.825  0.00  0.00    +0.137 C 
ATOM      5  C   UNL     1       4.857   1.685 -22.425  0.00  0.00    +0.153 C 
ATOM      6  C   UNL     1       4.047   0.713 -22.132  0.00  0.00    +0.039 C 
ATOM      7  N   UNL     1       2.632   4.142 -23.332  0.00  0.00    -0.214 NA
ATOM      8  C   UNL     1       1.348   4.312 -23.439  0.00  0.00    +0.231 A 
ATOM      9  O   UNL     1       0.635   5.336 -23.809  0.00  0.00    -0.445 OA
ATOM     10  C   UNL     1      -0.617   4.995 -23.745  0.00  0.00    +0.198 A 
ATOM     11  C   UNL     1      -0.680   3.763 -23.336  0.00  0.00    +0.055 A 
ATOM     12  C   UNL     1       2.763   0.886 -22.240  0.00  0.00    +0.043 C 
ATOM     13  C   UNL     1       0.535   3.343 -23.148  0.00  0.00    +0.082 A 
ENDROOT
BRANCH   5  14
ATOM     14  O   UNL     1       6.142   1.514 -22.317  0.00  0.00    -0.389 OA
ATOM     15  H   UNL     1       6.451   0.934 -23.030  0.00  0.00    +0.210 HD
ENDBRANCH   5  14
BRANCH   4  16
ATOM     16  O   UNL     1       4.331   4.087 -23.247  0.00  0.00    -0.368 OA
ATOM     17  C   UNL     1       4.674   5.075 -22.473  0.00  0.00    +0.195 C 
ENDBRANCH   4  16
BRANCH   1  19
ATOM     18  C   UNL     1      -0.530   1.290 -21.380  0.00  0.00    +0.277 C 
ATOM     19  O   UNL     1       0.196   1.227 -22.455  0.00  0.00    -0.494 OA
ENDBRANCH   1  19
BRANCH   4  20
ATOM     20  C   UNL     1       5.670   3.075 -22.857  0.00  0.00    +0.047 C 
BRANCH  20  21
ATOM     21  C   UNL     1       6.246   3.359 -23.967  0.00  0.00    +0.037 C 
BRANCH  21  22
ATOM     22  C   UNL     1       7.500   3.678 -24.005  0.00  0.00    +0.061 C 
ATOM     23  C   UNL     1       8.038   4.297 -22.996  0.00  0.00    +0.041 C 
ATOM     24  C   UNL     1       8.642   3.695 -24.621  0.00  0.00    +0.041 C 
BRANCH  22  25
ATOM     25  O   UNL     1       7.604   3.151 -25.185  0.00  0.00    -0.389 OA
ATOM     26  H   UNL     1       8.210   2.394 -25.149  0.00  0.00    +0.210 HD
ENDBRANCH  22  25
ENDBRANCH  21  22
ENDBRANCH  20  21
ENDBRANCH   4  20
TORSDOF 7
ENDMDL
MODEL 6
REMARK VINA RESULT:    -7.032      2.333      3.871
REMARK INTER + INTRA:          -5.881
REMARK INTER:                  -9.139
REMARK INTRA:                   3.258
REMARK UNBOUND:                 3.618
REMARK  Name = ZINC000000199438
REMARK  11 active torsions:
REMARK  status: ('A' for Active; 'I' for Inactive)
REMARK    1  A    between atoms: C_1  and  O_2
REMARK    2  A    between atoms: O_2  and  C_3
REMARK    3  A    between atoms: C_12  and  C_13
REMARK    4  A    between atoms: C_12  and  O_19
REMARK    5  A    between atoms: C_13  and  C_14
REMARK    6  A    between atoms: C_14  and  C_15
REMARK    7  A    between atoms: C_15  and  C_16
REMARK    8  A    between atoms: C_15  and  C_17
REMARK    9  A    between atoms: C_15  and  O_18
REMARK   10  A    between atoms: O_19  and  C_20
REMARK   11  A    between atoms: C_21  and  O_22
REMARK                            x       y       z     vdW  Elec       q    Type
REMARK                         _______ _______ _______ _____ _____    ______ ____
ROOT
ATOM      1  C   UNL     1       5.791   4.058 -23.107  0.00  0.00    +0.137 A 
ATOM      2  C   UNL     1       4.706   3.417 -23.422  0.00  0.00    +0.019 A 
ATOM      3  C   UNL     1       3.548   3.976 -23.232  0.00  0.00    +0.086 A 
ATOM      4  C   UNL     1       2.458   3.336 -23.547  0.00  0.00    +0.137 C 
ATOM      5  C   UNL     1       2.533   2.141 -24.048  0.00  0.00    +0.153 C 
ATOM      6  C   UNL     1       3.690   1.581 -24.238  0.00  0.00    +0.039 C 
ATOM      7  N   UNL     1       3.475   5.172 -22.731  0.00  0.00    -0.214 NA
ATOM      8  C   UNL     1       4.563   5.809 -22.417  0.00  0.00    +0.231 A 
ATOM      9  O   UNL     1       4.761   6.992 -21.910  0.00  0.00    -0.445 OA
ATOM     10  C   UNL     1       6.043   7.162 -21.786  0.00  0.00    +0.198 A 
ATOM     11  C   UNL     1       6.637   6.090 -22.215  0.00  0.00    +0.055 A 
ATOM     12  C   UNL     1       4.776   2.223 -23.923  0.00  0.00    +0.043 C 
ATOM     13  C   UNL     1       5.721   5.255 -22.605  0.00  0.00    +0.082 A 
ENDROOT
BRANCH   5  14
ATOM     14  O   UNL     1       1.445   1.501 -24.362  0.00  0.00    -0.389 OA
ATOM     15  H   UNL     1       1.039   1.915 -25.140  0.00  0.00    +0.210 HD
ENDBRANCH   5  14
BRANCH   4  16
ATOM     16  O   UNL     1       1.960   4.479 -23.085  0.00  0.00    -0.368 OA
ATOM     17  C   UNL     1       1.392   5.337 -23.879  0.00  0.00    +0.195 C 
ENDBRANCH   4  16
BRANCH   1  19
ATOM     18  C   UNL     1       7.627   3.756 -24.375  0.00  0.00    +0.277 C 
ATOM     19  O   UNL     1       6.951   3.499 -23.296  0.00  0.00    -0.494 OA
ENDBRANCH   1  19
BRANCH   4  20
ATOM     20  C   UNL     1       1.191   3.070 -23.710  0.00  0.00    +0.047 C 
BRANCH  20  21
ATOM     21  C   UNL     1       0.393   3.082 -22.707  0.00  0.00    +0.037 C 
BRANCH  21  22
ATOM     22  C   UNL     1      -0.803   2.593 -22.799  0.00  0.00    +0.061 C 
ATOM     23  C   UNL     1      -1.290   1.894 -21.816  0.00  0.00    +0.041 C 
ATOM     24  C   UNL     1      -1.905   2.425 -23.462  0.00  0.00    +0.041 C 
BRANCH  22  25
ATOM     25  O   UNL     1      -0.931   3.113 -23.980  0.00  0.00    -0.389 OA
ATOM     26  H   UNL     1      -1.541   3.866 -23.937  0.00  0.00    +0.210 HD
ENDBRANCH  22  25
ENDBRANCH  21  22
ENDBRANCH  20  21
ENDBRANCH   4  20
TORSDOF 7
ENDMDL
MODEL 7
REMARK VINA RESULT:    -6.453      3.636      7.503
REMARK INTER + INTRA:          -5.098
REMARK INTER:                  -8.297
REMARK INTRA:                   3.200
REMARK UNBOUND:                 3.618
REMARK  Name = ZINC000000199438
REMARK  11 active torsions:
REMARK  status: ('A' for Active; 'I' for Inactive)
REMARK    1  A    between atoms: C_1  and  O_2
REMARK    2  A    between atoms: O_2  and  C_3
REMARK    3  A    between atoms: C_12  and  C_13
REMARK    4  A    between atoms: C_12  and  O_19
REMARK    5  A    between atoms: C_13  and  C_14
REMARK    6  A    between atoms: C_14  and  C_15
REMARK    7  A    between atoms: C_15  and  C_16
REMARK    8  A    between atoms: C_15  and  C_17
REMARK    9  A    between atoms: C_15  and  O_18
REMARK   10  A    between atoms: O_19  and  C_20
REMARK   11  A    between atoms: C_21  and  O_22
REMARK                            x       y       z     vdW  Elec       q    Type
REMARK                         _______ _______ _______ _____ _____    ______ ____
ROOT
ATOM      1  C   UNL     1       3.834   3.089 -23.774  0.00  0.00    +0.137 A 
ATOM      2  C   UNL     1       4.991   3.438 -23.298  0.00  0.00    +0.019 A 
ATOM      3  C   UNL     1       5.120   4.577 -22.684  0.00  0.00    +0.086 A 
ATOM      4  C   UNL     1       6.278   4.929 -22.205  0.00  0.00    +0.137 C 
ATOM      5  C   UNL     1       7.302   4.141 -22.343  0.00  0.00    +0.153 C 
ATOM      6  C   UNL     1       7.173   3.003 -22.956  0.00  0.00    +0.039 C 
ATOM      7  N   UNL     1       4.096   5.364 -22.547  0.00  0.00    -0.214 NA
ATOM      8  C   UNL     1       2.941   5.011 -23.025  0.00  0.00    +0.231 A 
ATOM      9  O   UNL     1       1.782   5.604 -23.022  0.00  0.00    -0.445 OA
ATOM     10  C   UNL     1       0.936   4.830 -23.634  0.00  0.00    +0.198 A 
ATOM     11  C   UNL     1       1.569   3.762 -24.016  0.00  0.00    +0.055 A 
ATOM     12  C   UNL     1       6.015   2.653 -23.433  0.00  0.00    +0.043 C 
ATOM     13  C   UNL     1       2.807   3.875 -23.638  0.00  0.00    +0.082 A 
ENDROOT
BRANCH   5  14
ATOM     14  O   UNL     1       8.459   4.492 -21.865  0.00  0.00    -0.389 OA
ATOM     15  H   UNL     1       9.004   4.862 -22.577  0.00  0.00    +0.210 HD
ENDBRANCH   5  14
BRANCH   4  16
ATOM     16  O   UNL     1       5.532   5.974 -21.865  0.00  0.00    -0.368 OA
ATOM     17  C   UNL     1       5.781   7.162 -22.332  0.00  0.00    +0.195 C 
ENDBRANCH   4  16
BRANCH   1  19
ATOM     18  C   UNL     1       3.334   0.894 -23.727  0.00  0.00    +0.277 C 
ATOM     19  O   UNL     1       3.703   1.950 -24.389  0.00  0.00    -0.494 OA
ENDBRANCH   1  19
BRANCH   4  20
ATOM     20  C   UNL     1       7.201   5.633 -21.608  0.00  0.00    +0.047 C 
BRANCH  20  21
ATOM     21  C   UNL     1       7.097   5.910 -20.360  0.00  0.00    +0.037 C 
BRANCH  21  22
ATOM     22  C   UNL     1       8.093   6.411 -19.702  0.00  0.00    +0.061 C 
ATOM     23  C   UNL     1       8.410   7.661 -19.867  0.00  0.00    +0.041 C 
ATOM     24  C   UNL     1       9.062   6.279 -18.849  0.00  0.00    +0.041 C 
BRANCH  22  25
ATOM     25  O   UNL     1       8.302   5.264 -19.134  0.00  0.00    -0.389 OA
ATOM     26  H   UNL     1       8.982   4.778 -19.626  0.00  0.00    +0.210 HD
ENDBRANCH  22  25
ENDBRANCH  21  22
ENDBRANCH  20  21
ENDBRANCH   4  20
TORSDOF 7
ENDMDL
MODEL 8
REMARK VINA RESULT:    -5.913      1.838      6.219
REMARK INTER + INTRA:          -4.369
REMARK INTER:                  -7.988
REMARK INTRA:                   3.618
REMARK UNBOUND:                 3.618
REMARK  Name = ZINC000000199438
REMARK  11 active torsions:
REMARK  status: ('A' for Active; 'I' for Inactive)
REMARK    1  A    between atoms: C_1  and  O_2
REMARK    2  A    between atoms: O_2  and  C_3
REMARK    3  A    between atoms: C_12  and  C_13
REMARK    4  A    between atoms: C_12  and  O_19
REMARK    5  A    between atoms: C_13  and  C_14
REMARK    6  A    between atoms: C_14  and  C_15
REMARK    7  A    between atoms: C_15  and  C_16
REMARK    8  A    between atoms: C_15  and  C_17
REMARK    9  A    between atoms: C_15  and  O_18
REMARK   10  A    between atoms: O_19  and  C_20
REMARK   11  A    between atoms: C_21  and  O_22
REMARK                            x       y       z     vdW  Elec       q    Type
REMARK                         _______ _______ _______ _____ _____    ______ ____
ROOT
ATOM      1  C   UNL     1       0.390   3.861 -22.909  0.00  0.00    +0.137 A 
ATOM      2  C   UNL     1       1.612   4.297 -22.950  0.00  0.00    +0.019 A 
ATOM      3  C   UNL     1       2.596   3.487 -22.696  0.00  0.00    +0.086 A 
ATOM      4  C   UNL     1       3.823   3.922 -22.737  0.00  0.00    +0.137 C 
ATOM      5  C   UNL     1       4.059   5.164 -23.032  0.00  0.00    +0.153 C 
ATOM      6  C   UNL     1       3.076   5.974 -23.287  0.00  0.00    +0.039 C 
ATOM      7  N   UNL     1       2.359   2.245 -22.400  0.00  0.00    -0.214 NA
ATOM      8  C   UNL     1       1.135   1.812 -22.360  0.00  0.00    +0.231 A 
ATOM      9  O   UNL     1       0.636   0.639 -22.096  0.00  0.00    -0.445 OA
ATOM     10  C   UNL     1      -0.657   0.725 -22.188  0.00  0.00    +0.198 A 
ATOM     11  C   UNL     1      -0.959   1.947 -22.507  0.00  0.00    +0.055 A 
ATOM     12  C   UNL     1       1.852   5.538 -23.245  0.00  0.00    +0.043 C 
ATOM     13  C   UNL     1       0.149   2.618 -22.613  0.00  0.00    +0.082 A 
ENDROOT
BRANCH   5  14
ATOM     14  O   UNL     1       5.284   5.599 -23.073  0.00  0.00    -0.389 OA
ATOM     15  H   UNL     1       5.820   5.003 -23.619  0.00  0.00    +0.210 HD
ENDBRANCH   5  14
BRANCH   4  16
ATOM     16  O   UNL     1       4.014   2.647 -22.410  0.00  0.00    -0.368 OA
ATOM     17  C   UNL     1       4.512   2.314 -21.257  0.00  0.00    +0.195 C 
ENDBRANCH   4  16
BRANCH   1  19
ATOM     18  C   UNL     1      -1.433   4.990 -22.222  0.00  0.00    +0.277 C 
ATOM     19  O   UNL     1      -0.596   4.671 -23.163  0.00  0.00    -0.494 OA
ENDBRANCH   1  19
BRANCH   4  20
ATOM     20  C   UNL     1       5.127   3.937 -22.670  0.00  0.00    +0.047 C 
BRANCH  20  21
ATOM     21  C   UNL     1       5.824   3.220 -23.473  0.00  0.00    +0.037 C 
BRANCH  21  22
ATOM     22  C   UNL     1       7.105   3.383 -23.573  0.00  0.00    +0.061 C 
ATOM     23  C   UNL     1       7.785   3.777 -22.537  0.00  0.00    +0.041 C 
ATOM     24  C   UNL     1       8.195   3.348 -24.275  0.00  0.00    +0.041 C 
BRANCH  22  25
ATOM     25  O   UNL     1       7.059   3.025 -24.818  0.00  0.00    -0.389 OA
ATOM     26  H   UNL     1       7.794   2.421 -25.008  0.00  0.00    +0.210 HD
ENDBRANCH  22  25
ENDBRANCH  21  22
ENDBRANCH  20  21
ENDBRANCH   4  20
TORSDOF 7
ENDMDL
MODEL 9
REMARK VINA RESULT:    -5.794      3.243      7.502
REMARK INTER + INTRA:          -4.208
REMARK INTER:                  -7.612
REMARK INTRA:                   3.404
REMARK UNBOUND:                 3.618
REMARK  Name = ZINC000000199438
REMARK  11 active torsions:
REMARK  status: ('A' for Active; 'I' for Inactive)
REMARK    1  A    between atoms: C_1  and  O_2
REMARK    2  A    between atoms: O_2  and  C_3
REMARK    3  A    between atoms: C_12  and  C_13
REMARK    4  A    between atoms: C_12  and  O_19
REMARK    5  A    between atoms: C_13  and  C_14
REMARK    6  A    between atoms: C_14  and  C_15
REMARK    7  A    between atoms: C_15  and  C_16
REMARK    8  A    between atoms: C_15  and  C_17
REMARK    9  A    between atoms: C_15  and  O_18
REMARK   10  A    between atoms: O_19  and  C_20
REMARK   11  A    between atoms: C_21  and  O_22
REMARK                            x       y       z     vdW  Elec       q    Type
REMARK                         _______ _______ _______ _____ _____    ______ ____
ROOT
ATOM      1  C   UNL     1       3.157   2.778 -22.837  0.00  0.00    +0.137 A 
ATOM      2  C   UNL     1       4.382   3.114 -22.568  0.00  0.00    +0.019 A 
ATOM      3  C   UNL     1       4.746   4.359 -22.665  0.00  0.00    +0.086 A 
ATOM      4  C   UNL     1       5.974   4.698 -22.395  0.00  0.00    +0.137 C 
ATOM      5  C   UNL     1       6.831   3.793 -22.031  0.00  0.00    +0.153 C 
ATOM      6  C   UNL     1       6.467   2.549 -21.934  0.00  0.00    +0.039 C 
ATOM      7  N   UNL     1       3.889   5.264 -23.029  0.00  0.00    -0.214 NA
ATOM      8  C   UNL     1       2.665   4.923 -23.297  0.00  0.00    +0.231 A 
ATOM      9  O   UNL     1       1.632   5.620 -23.676  0.00  0.00    -0.445 OA
ATOM     10  C   UNL     1       0.629   4.806 -23.813  0.00  0.00    +0.198 A 
ATOM     11  C   UNL     1       1.039   3.608 -23.521  0.00  0.00    +0.055 A 
ATOM     12  C   UNL     1       5.240   2.212 -22.204  0.00  0.00    +0.043 C 
ATOM     13  C   UNL     1       2.296   3.682 -23.202  0.00  0.00    +0.082 A 
ENDROOT
BRANCH   5  14
ATOM     14  O   UNL     1       8.057   4.132 -21.762  0.00  0.00    -0.389 OA
ATOM     15  H   UNL     1       8.383   4.735 -22.447  0.00  0.00    +0.210 HD
ENDBRANCH   5  14
BRANCH   4  16
ATOM     16  O   UNL     1       5.447   5.876 -22.715  0.00  0.00    -0.368 OA
ATOM     17  C   UNL     1       5.383   6.844 -21.849  0.00  0.00    +0.195 C 
ENDBRANCH   4  16
BRANCH   1  19
ATOM     18  C   UNL     1       2.917   0.739 -23.762  0.00  0.00    +0.277 C 
ATOM     19  O   UNL     1       2.790   1.534 -22.741  0.00  0.00    -0.494 OA
ENDBRANCH   1  19
BRANCH   4  20
ATOM     20  C   UNL     1       7.040   5.434 -22.229  0.00  0.00    +0.047 C 
BRANCH  20  21
ATOM     21  C   UNL     1       7.744   5.789 -23.241  0.00  0.00    +0.037 C 
BRANCH  21  22
ATOM     22  C   UNL     1       8.374   6.920 -23.252  0.00  0.00    +0.061 C 
ATOM     23  C   UNL     1       9.062   7.283 -22.210  0.00  0.00    +0.041 C 
ATOM     24  C   UNL     1       8.710   8.018 -23.855  0.00  0.00    +0.041 C 
BRANCH  22  25
ATOM     25  O   UNL     1       7.946   7.153 -24.454  0.00  0.00    -0.389 OA
ATOM     26  H   UNL     1       7.000   7.362 -24.425  0.00  0.00    +0.210 HD
ENDBRANCH  22  25
ENDBRANCH  21  22
ENDBRANCH  20  21
ENDBRANCH   4  20
TORSDOF 7
ENDMDL
