MODEL 1
REMARK VINA RESULT:   -11.223      0.000      0.000
REMARK INTER + INTRA:         -11.998
REMARK INTER:                 -11.848
REMARK INTRA:                  -0.150
REMARK UNBOUND:                -0.120
REMARK  Name = COc1ccc2c3c1O[C@@]1(C)C(=O)C=C[C@H]4[C@@H](C2)N(C)CC[C@]341          ZINC000100393550
REMARK  4 active torsions:
REMARK  status: ('A' for Active; 'I' for Inactive)
REMARK    1  A    between atoms: C_1  and  O_2
REMARK    2  A    between atoms: O_2  and  C_3
REMARK    3  A    between atoms: C_10  and  C_11
REMARK    4  A    between atoms: N_19  and  C_20
REMARK                            x       y       z     vdW  Elec       q    Type
REMARK                         _______ _______ _______ _____ _____    ______ ____
ROOT
ATOM      1  C   UNL     1       0.836   2.237 -23.196  0.00  0.00    +0.162 A 
ATOM      2  C   UNL     1       0.801   1.888 -21.981  0.00  0.00    +0.050 A 
ATOM      3  C   UNL     1      -0.274   1.922 -21.341  0.00  0.00    +0.008 A 
ATOM      4  C   UNL     1      -1.327   2.304 -21.907  0.00  0.00    -0.034 A 
ATOM      5  C   UNL     1      -1.312   2.655 -23.117  0.00  0.00    +0.013 A 
ATOM      6  C   UNL     1      -2.362   3.036 -23.680  0.00  0.00    +0.062 C 
ATOM      7  C   UNL     1      -3.492   3.485 -24.423  0.00  0.00    +0.067 C 
ATOM      8  C   UNL     1      -4.719   3.534 -23.727  0.00  0.00    +0.132 C 
ATOM      9  N   UNL     1      -4.718   3.137 -22.374  0.00  0.00    +0.236 N 
ATOM     10  H   UNL     1      -5.577   3.152 -21.822  0.00  0.00    +0.203 HD
ATOM     11  C   UNL     1      -5.763   3.151 -21.686  0.00  0.00    +0.190 C 
ATOM     12  C   UNL     1      -3.470   2.720 -21.826  0.00  0.00    +0.076 C 
ATOM     13  C   UNL     1      -3.439   3.070 -23.042  0.00  0.00    +0.076 C 
ATOM     14  C   UNL     1      -4.499   3.455 -23.612  0.00  0.00    -0.013 C 
ATOM     15  C   UNL     1      -4.475   3.802 -24.815  0.00  0.00    +0.046 C 
ATOM     16  C   UNL     1      -3.392   3.770 -25.465  0.00  0.00    +0.200 C 
ATOM     17  O   UNL     1      -3.370   4.118 -26.668  0.00  0.00    -0.288 OA
ATOM     18  C   UNL     1      -2.341   3.389 -24.903  0.00  0.00    +0.180 C 
ATOM     19  C   UNL     1      -2.031   3.671 -26.083  0.00  0.00    +0.065 C 
ATOM     20  O   UNL     1      -0.861   3.123 -25.033  0.00  0.00    -0.473 OA
ATOM     21  C   UNL     1      -2.422   2.339 -21.260  0.00  0.00    +0.090 C 
ATOM     22  C   UNL     1      -0.229   2.623 -23.766  0.00  0.00    +0.167 A 
ENDROOT
BRANCH   1  24
ATOM     23  C   UNL     1       2.627   3.226 -23.916  0.00  0.00    +0.277 C 
ATOM     24  O   UNL     1       1.913   2.202 -23.832  0.00  0.00    -0.491 OA
ENDBRANCH   1  24
TORSDOF 1
ENDMDL
MODEL 2
REMARK VINA RESULT:   -10.604      1.938      4.883
REMARK INTER + INTRA:         -11.344
REMARK INTER:                 -11.231
REMARK INTRA:                  -0.113
REMARK UNBOUND:                -0.120
REMARK  Name = COc1ccc2c3c1O[C@@]1(C)C(=O)C=C[C@H]4[C@@H](C2)N(C)CC[C@]341          ZINC000100393550
REMARK  4 active torsions:
REMARK  status: ('A' for Active; 'I' for Inactive)
REMARK    1  A    between atoms: C_1  and  O_2
REMARK    2  A    between atoms: O_2  and  C_3
REMARK    3  A    between atoms: C_10  and  C_11
REMARK    4  A    between atoms: N_19  and  C_20
REMARK                            x       y       z     vdW  Elec       q    Type
REMARK                         _______ _______ _______ _____ _____    ______ ____
ROOT
ATOM      1  C   UNL     1      -3.418   3.241 -23.129  0.00  0.00    +0.162 A 
ATOM      2  C   UNL     1      -3.655   2.709 -22.007  0.00  0.00    +0.050 A 
ATOM      3  C   UNL     1      -2.734   2.174 -21.349  0.00  0.00    +0.008 A 
ATOM      4  C   UNL     1      -1.565   2.165 -21.805  0.00  0.00    -0.034 A 
ATOM      5  C   UNL     1      -1.309   2.690 -22.921  0.00  0.00    +0.013 A 
ATOM      6  C   UNL     1      -0.143   2.679 -23.374  0.00  0.00    +0.062 C 
ATOM      7  C   UNL     1       1.142   2.728 -23.988  0.00  0.00    +0.067 C 
ATOM      8  C   UNL     1       2.201   2.132 -23.269  0.00  0.00    +0.132 C 
ATOM      9  N   UNL     1       1.897   1.549 -22.022  0.00  0.00    +0.236 N 
ATOM     10  H   UNL     1       2.623   1.105 -21.459  0.00  0.00    +0.203 HD
ATOM     11  C   UNL     1       2.778   1.001 -21.322  0.00  0.00    +0.190 C 
ATOM     12  C   UNL     1       0.539   1.613 -21.595  0.00  0.00    +0.076 C 
ATOM     13  C   UNL     1       0.780   2.145 -22.718  0.00  0.00    +0.076 C 
ATOM     14  C   UNL     1       1.958   2.135 -23.177  0.00  0.00    -0.013 C 
ATOM     15  C   UNL     1       2.204   2.659 -24.287  0.00  0.00    +0.046 C 
ATOM     16  C   UNL     1       1.277   3.201 -24.955  0.00  0.00    +0.200 C 
ATOM     17  O   UNL     1       1.525   3.724 -26.065  0.00  0.00    -0.288 OA
ATOM     18  C   UNL     1       0.110   3.211 -24.503  0.00  0.00    +0.180 C 
ATOM     19  C   UNL     1       0.068   3.794 -25.610  0.00  0.00    +0.065 C 
ATOM     20  O   UNL     1      -1.326   3.624 -24.715  0.00  0.00    -0.473 OA
ATOM     21  C   UNL     1      -0.626   1.622 -21.139  0.00  0.00    +0.090 C 
ATOM     22  C   UNL     1      -2.236   3.230 -23.588  0.00  0.00    +0.167 A 
ENDROOT
BRANCH   1  24
ATOM     23  C   UNL     1      -5.517   3.736 -23.355  0.00  0.00    +0.277 C 
ATOM     24  O   UNL     1      -4.342   3.774 -23.783  0.00  0.00    -0.491 OA
ENDBRANCH   1  24
TORSDOF 1
ENDMDL
MODEL 3
REMARK VINA RESULT:   -10.590      2.121      5.443
REMARK INTER + INTRA:         -11.329
REMARK INTER:                 -11.259
REMARK INTRA:                  -0.070
REMARK UNBOUND:                -0.120
REMARK  Name = COc1ccc2c3c1O[C@@]1(C)C(=O)C=C[C@H]4[C@@H](C2)N(C)CC[C@]341          ZINC000100393550
REMARK  4 active torsions:
REMARK  status: ('A' for Active; 'I' for Inactive)
REMARK    1  A    between atoms: C_1  and  O_2
REMARK    2  A    between atoms: O_2  and  C_3
REMARK    3  A    between atoms: C_10  and  C_11
REMARK    4  A    between atoms: N_19  and  C_20
REMARK                            x       y       z     vdW  Elec       q    Type
REMARK                         _______ _______ _______ _____ _____    ______ ____
ROOT
ATOM      1  C   UNL     1      -4.630   3.719 -23.071  0.00  0.00    +0.162 A 
ATOM      2  C   UNL     1      -4.808   4.169 -24.240  0.00  0.00    +0.050 A 
ATOM      3  C   UNL     1      -3.868   4.178 -25.067  0.00  0.00    +0.008 A 
ATOM      4  C   UNL     1      -2.740   3.738 -24.736  0.00  0.00    -0.034 A 
ATOM      5  C   UNL     1      -2.544   3.286 -23.576  0.00  0.00    +0.013 A 
ATOM      6  C   UNL     1      -1.419   2.848 -23.248  0.00  0.00    +0.062 C 
ATOM      7  C   UNL     1      -0.186   2.326 -22.763  0.00  0.00    +0.067 C 
ATOM      8  C   UNL     1       0.893   2.323 -23.674  0.00  0.00    +0.132 C 
ATOM      9  N   UNL     1       0.657   2.832 -24.967  0.00  0.00    +0.236 N 
ATOM     10  H   UNL     1       1.400   2.855 -25.667  0.00  0.00    +0.203 HD
ATOM     11  C   UNL     1       1.559   2.866 -25.834  0.00  0.00    +0.190 C 
ATOM     12  C   UNL     1      -0.659   3.308 -25.242  0.00  0.00    +0.076 C 
ATOM     13  C   UNL     1      -0.478   2.857 -24.073  0.00  0.00    +0.076 C 
ATOM     14  C   UNL     1       0.658   2.414 -23.740  0.00  0.00    -0.013 C 
ATOM     15  C   UNL     1       0.844   1.966 -22.586  0.00  0.00    +0.046 C 
ATOM     16  C   UNL     1      -0.102   1.955 -21.747  0.00  0.00    +0.200 C 
ATOM     17  O   UNL     1       0.087   1.507 -20.593  0.00  0.00    -0.288 OA
ATOM     18  C   UNL     1      -1.227   2.393 -22.074  0.00  0.00    +0.180 C 
ATOM     19  C   UNL     1      -1.324   2.016 -20.885  0.00  0.00    +0.065 C 
ATOM     20  O   UNL     1      -2.652   2.663 -21.655  0.00  0.00    -0.473 OA
ATOM     21  C   UNL     1      -1.782   3.746 -25.574  0.00  0.00    +0.090 C 
ATOM     22  C   UNL     1      -3.490   3.275 -22.739  0.00  0.00    +0.167 A 
ENDROOT
BRANCH   1  24
ATOM     23  C   UNL     1      -5.965   2.632 -21.752  0.00  0.00    +0.277 C 
ATOM     24  O   UNL     1      -5.573   3.712 -22.248  0.00  0.00    -0.491 OA
ENDBRANCH   1  24
TORSDOF 1
ENDMDL
MODEL 4
REMARK VINA RESULT:   -10.523      1.768      3.117
REMARK INTER + INTRA:         -11.258
REMARK INTER:                 -11.107
REMARK INTRA:                  -0.150
REMARK UNBOUND:                -0.120
REMARK  Name = COc1ccc2c3c1O[C@@]1(C)C(=O)C=C[C@H]4[C@@H](C2)N(C)CC[C@]341          ZINC000100393550
REMARK  4 active torsions:
REMARK  status: ('A' for Active; 'I' for Inactive)
REMARK    1  A    between atoms: C_1  and  O_2
REMARK    2  A    between atoms: O_2  and  C_3
REMARK    3  A    between atoms: C_10  and  C_11
REMARK    4  A    between atoms: N_19  and  C_20
REMARK                            x       y       z     vdW  Elec       q    Type
REMARK                         _______ _______ _______ _____ _____    ______ ____
ROOT
ATOM      1  C   UNL     1       1.108   3.081 -23.337  0.00  0.00    +0.162 A 
ATOM      2  C   UNL     1       1.283   3.207 -24.584  0.00  0.00    +0.050 A 
ATOM      3  C   UNL     1       0.305   3.359 -25.351  0.00  0.00    +0.008 A 
ATOM      4  C   UNL     1      -0.859   3.387 -24.881  0.00  0.00    -0.034 A 
ATOM      5  C   UNL     1      -1.053   3.264 -23.643  0.00  0.00    +0.013 A 
ATOM      6  C   UNL     1      -2.213   3.292 -23.177  0.00  0.00    +0.062 C 
ATOM      7  C   UNL     1      -3.485   3.309 -22.535  0.00  0.00    +0.067 C 
ATOM      8  C   UNL     1      -4.607   3.479 -23.375  0.00  0.00    +0.132 C 
ATOM      9  N   UNL     1      -4.372   3.616 -24.759  0.00  0.00    +0.236 N 
ATOM     10  H   UNL     1      -5.145   3.741 -25.413  0.00  0.00    +0.203 HD
ATOM     11  C   UNL     1      -5.311   3.770 -25.571  0.00  0.00    +0.190 C 
ATOM     12  C   UNL     1      -3.014   3.570 -25.189  0.00  0.00    +0.076 C 
ATOM     13  C   UNL     1      -3.193   3.444 -23.942  0.00  0.00    +0.076 C 
ATOM     14  C   UNL     1      -4.365   3.473 -23.470  0.00  0.00    -0.013 C 
ATOM     15  C   UNL     1      -4.549   3.349 -22.238  0.00  0.00    +0.046 C 
ATOM     16  C   UNL     1      -3.565   3.195 -21.459  0.00  0.00    +0.200 C 
ATOM     17  O   UNL     1      -3.751   3.072 -20.227  0.00  0.00    -0.288 OA
ATOM     18  C   UNL     1      -2.404   3.167 -21.924  0.00  0.00    +0.180 C 
ATOM     19  C   UNL     1      -2.294   3.022 -20.685  0.00  0.00    +0.065 C 
ATOM     20  O   UNL     1      -0.928   3.033 -21.637  0.00  0.00    -0.473 OA
ATOM     21  C   UNL     1      -1.855   3.542 -25.658  0.00  0.00    +0.090 C 
ATOM     22  C   UNL     1      -0.069   3.110 -22.866  0.00  0.00    +0.167 A 
ENDROOT
BRANCH   1  24
ATOM     23  C   UNL     1       2.431   1.782 -22.213  0.00  0.00    +0.277 C 
ATOM     24  O   UNL     1       2.088   2.929 -22.575  0.00  0.00    -0.491 OA
ENDBRANCH   1  24
TORSDOF 1
ENDMDL
MODEL 5
REMARK VINA RESULT:   -10.141      2.020      4.421
REMARK INTER + INTRA:         -10.853
REMARK INTER:                 -10.710
REMARK INTRA:                  -0.143
REMARK UNBOUND:                -0.120
REMARK  Name = COc1ccc2c3c1O[C@@]1(C)C(=O)C=C[C@H]4[C@@H](C2)N(C)CC[C@]341          ZINC000100393550
REMARK  4 active torsions:
REMARK  status: ('A' for Active; 'I' for Inactive)
REMARK    1  A    between atoms: C_1  and  O_2
REMARK    2  A    between atoms: O_2  and  C_3
REMARK    3  A    between atoms: C_10  and  C_11
REMARK    4  A    between atoms: N_19  and  C_20
REMARK                            x       y       z     vdW  Elec       q    Type
REMARK                         _______ _______ _______ _____ _____    ______ ____
ROOT
ATOM      1  C   UNL     1      -5.033   3.315 -21.794  0.00  0.00    +0.162 A 
ATOM      2  C   UNL     1      -4.446   3.236 -20.677  0.00  0.00    +0.050 A 
ATOM      3  C   UNL     1      -3.196   3.207 -20.616  0.00  0.00    +0.008 A 
ATOM      4  C   UNL     1      -2.518   3.257 -21.671  0.00  0.00    -0.034 A 
ATOM      5  C   UNL     1      -3.085   3.337 -22.793  0.00  0.00    +0.013 A 
ATOM      6  C   UNL     1      -2.407   3.387 -23.843  0.00  0.00    +0.062 C 
ATOM      7  C   UNL     1      -1.742   3.450 -25.102  0.00  0.00    +0.067 C 
ATOM      8  C   UNL     1      -0.331   3.420 -25.065  0.00  0.00    +0.132 C 
ATOM      9  N   UNL     1       0.287   3.331 -23.801  0.00  0.00    +0.236 N 
ATOM     10  H   UNL     1       1.304   3.305 -23.715  0.00  0.00    +0.203 HD
ATOM     11  C   UNL     1       1.533   3.299 -23.681  0.00  0.00    +0.190 C 
ATOM     12  C   UNL     1      -0.573   3.279 -22.666  0.00  0.00    +0.076 C 
ATOM     13  C   UNL     1      -1.157   3.359 -23.786  0.00  0.00    +0.076 C 
ATOM     14  C   UNL     1      -0.474   3.409 -24.848  0.00  0.00    -0.013 C 
ATOM     15  C   UNL     1      -1.046   3.488 -25.959  0.00  0.00    +0.046 C 
ATOM     16  C   UNL     1      -2.307   3.517 -26.025  0.00  0.00    +0.200 C 
ATOM     17  O   UNL     1      -2.877   3.596 -27.138  0.00  0.00    -0.288 OA
ATOM     18  C   UNL     1      -2.986   3.467 -24.975  0.00  0.00    +0.180 C 
ATOM     19  C   UNL     1      -3.801   3.541 -25.922  0.00  0.00    +0.065 C 
ATOM     20  O   UNL     1      -4.363   3.457 -24.357  0.00  0.00    -0.473 OA
ATOM     21  C   UNL     1      -1.246   3.229 -21.613  0.00  0.00    +0.090 C 
ATOM     22  C   UNL     1      -4.346   3.366 -22.858  0.00  0.00    +0.167 A 
ENDROOT
BRANCH   1  24
ATOM     23  C   UNL     1      -6.940   2.285 -21.737  0.00  0.00    +0.277 C 
ATOM     24  O   UNL     1      -6.283   3.343 -21.849  0.00  0.00    -0.491 OA
ENDBRANCH   1  24
TORSDOF 1
ENDMDL
MODEL 6
REMARK VINA RESULT:   -10.035      2.759      6.535
REMARK INTER + INTRA:         -10.741
REMARK INTER:                 -10.621
REMARK INTRA:                  -0.121
REMARK UNBOUND:                -0.120
REMARK  Name = COc1ccc2c3c1O[C@@]1(C)C(=O)C=C[C@H]4[C@@H](C2)N(C)CC[C@]341          ZINC000100393550
REMARK  4 active torsions:
REMARK  status: ('A' for Active; 'I' for Inactive)
REMARK    1  A    between atoms: C_1  and  O_2
REMARK    2  A    between atoms: O_2  and  C_3
REMARK    3  A    between atoms: C_10  and  C_11
REMARK    4  A    between atoms: N_19  and  C_20
REMARK                            x       y       z     vdW  Elec       q    Type
REMARK                         _______ _______ _______ _____ _____    ______ ____
ROOT
ATOM      1  C   UNL     1      -1.237   3.265 -23.361  0.00  0.00    +0.162 A 
ATOM      2  C   UNL     1      -1.323   4.503 -23.604  0.00  0.00    +0.050 A 
ATOM      3  C   UNL     1      -0.298   5.223 -23.610  0.00  0.00    +0.008 A 
ATOM      4  C   UNL     1       0.824   4.714 -23.373  0.00  0.00    -0.034 A 
ATOM      5  C   UNL     1       0.930   3.483 -23.128  0.00  0.00    +0.013 A 
ATOM      6  C   UNL     1       2.049   2.977 -22.892  0.00  0.00    +0.062 C 
ATOM      7  C   UNL     1       3.267   2.293 -22.610  0.00  0.00    +0.067 C 
ATOM      8  C   UNL     1       4.439   3.079 -22.610  0.00  0.00    +0.132 C 
ATOM      9  N   UNL     1       4.303   4.455 -22.885  0.00  0.00    +0.236 N 
ATOM     10  H   UNL     1       5.117   5.071 -22.898  0.00  0.00    +0.203 HD
ATOM     11  C   UNL     1       5.293   5.222 -22.904  0.00  0.00    +0.190 C 
ATOM     12  C   UNL     1       2.985   4.934 -23.141  0.00  0.00    +0.076 C 
ATOM     13  C   UNL     1       3.075   3.695 -22.897  0.00  0.00    +0.076 C 
ATOM     14  C   UNL     1       4.206   3.183 -22.659  0.00  0.00    -0.013 C 
ATOM     15  C   UNL     1       4.302   1.958 -22.416  0.00  0.00    +0.046 C 
ATOM     16  C   UNL     1       3.270   1.227 -22.409  0.00  0.00    +0.200 C 
ATOM     17  O   UNL     1       3.369   0.003 -22.167  0.00  0.00    -0.288 OA
ATOM     18  C   UNL     1       2.150   1.732 -22.645  0.00  0.00    +0.180 C 
ATOM     19  C   UNL     1       1.955   0.512 -22.441  0.00  0.00    +0.065 C 
ATOM     20  O   UNL     1       0.665   1.506 -22.790  0.00  0.00    -0.473 OA
ATOM     21  C   UNL     1       1.868   5.443 -23.378  0.00  0.00    +0.090 C 
ATOM     22  C   UNL     1      -0.102   2.753 -23.121  0.00  0.00    +0.167 A 
ENDROOT
BRANCH   1  24
ATOM     23  C   UNL     1      -3.317   2.967 -22.825  0.00  0.00    +0.277 C 
ATOM     24  O   UNL     1      -2.263   2.550 -23.356  0.00  0.00    -0.491 OA
ENDBRANCH   1  24
TORSDOF 1
ENDMDL
MODEL 7
REMARK VINA RESULT:    -9.452      1.872      3.069
REMARK INTER + INTRA:         -10.124
REMARK INTER:                  -9.997
REMARK INTRA:                  -0.127
REMARK UNBOUND:                -0.120
REMARK  Name = COc1ccc2c3c1O[C@@]1(C)C(=O)C=C[C@H]4[C@@H](C2)N(C)CC[C@]341          ZINC000100393550
REMARK  4 active torsions:
REMARK  status: ('A' for Active; 'I' for Inactive)
REMARK    1  A    between atoms: C_1  and  O_2
REMARK    2  A    between atoms: O_2  and  C_3
REMARK    3  A    between atoms: C_10  and  C_11
REMARK    4  A    between atoms: N_19  and  C_20
REMARK                            x       y       z     vdW  Elec       q    Type
REMARK                         _______ _______ _______ _____ _____    ______ ____
ROOT
ATOM      1  C   UNL     1       3.838   2.032 -22.472  0.00  0.00    +0.162 A 
ATOM      2  C   UNL     1       3.738   1.524 -21.318  0.00  0.00    +0.050 A 
ATOM      3  C   UNL     1       2.616   1.377 -20.783  0.00  0.00    +0.008 A 
ATOM      4  C   UNL     1       1.580   1.736 -21.394  0.00  0.00    -0.034 A 
ATOM      5  C   UNL     1       1.660   2.245 -22.545  0.00  0.00    +0.013 A 
ATOM      6  C   UNL     1       0.627   2.602 -23.152  0.00  0.00    +0.062 C 
ATOM      7  C   UNL     1      -0.477   3.045 -23.937  0.00  0.00    +0.067 C 
ATOM      8  C   UNL     1      -1.756   2.892 -23.360  0.00  0.00    +0.132 C 
ATOM      9  N   UNL     1      -1.827   2.322 -22.072  0.00  0.00    +0.236 N 
ATOM     10  H   UNL     1      -2.725   2.187 -21.606  0.00  0.00    +0.203 HD
ATOM     11  C   UNL     1      -2.921   2.152 -21.490  0.00  0.00    +0.190 C 
ATOM     12  C   UNL     1      -0.593   1.948 -21.465  0.00  0.00    +0.076 C 
ATOM     13  C   UNL     1      -0.497   2.457 -22.620  0.00  0.00    +0.076 C 
ATOM     14  C   UNL     1      -1.540   2.818 -23.235  0.00  0.00    -0.013 C 
ATOM     15  C   UNL     1      -1.452   3.323 -24.378  0.00  0.00    +0.046 C 
ATOM     16  C   UNL     1      -0.321   3.473 -24.922  0.00  0.00    +0.200 C 
ATOM     17  O   UNL     1      -0.235   3.977 -26.065  0.00  0.00    -0.288 OA
ATOM     18  C   UNL     1       0.713   3.115 -24.315  0.00  0.00    +0.180 C 
ATOM     19  C   UNL     1       1.089   3.577 -25.416  0.00  0.00    +0.065 C 
ATOM     20  O   UNL     1       2.218   3.000 -24.336  0.00  0.00    -0.473 OA
ATOM     21  C   UNL     1       0.437   1.589 -20.854  0.00  0.00    +0.090 C 
ATOM     22  C   UNL     1       2.790   2.394 -23.088  0.00  0.00    +0.167 A 
ENDROOT
BRANCH   1  24
ATOM     23  C   UNL     1       5.442   3.322 -23.155  0.00  0.00    +0.277 C 
ATOM     24  O   UNL     1       4.962   2.176 -23.002  0.00  0.00    -0.491 OA
ENDBRANCH   1  24
TORSDOF 1
ENDMDL
MODEL 8
REMARK VINA RESULT:    -8.685      3.662      5.907
REMARK INTER + INTRA:          -9.312
REMARK INTER:                  -9.179
REMARK INTRA:                  -0.133
REMARK UNBOUND:                -0.120
REMARK  Name = COc1ccc2c3c1O[C@@]1(C)C(=O)C=C[C@H]4[C@@H](C2)N(C)CC[C@]341          ZINC000100393550
REMARK  4 active torsions:
REMARK  status: ('A' for Active; 'I' for Inactive)
REMARK    1  A    between atoms: C_1  and  O_2
REMARK    2  A    between atoms: O_2  and  C_3
REMARK    3  A    between atoms: C_10  and  C_11
REMARK    4  A    between atoms: N_19  and  C_20
REMARK                            x       y       z     vdW  Elec       q    Type
REMARK                         _______ _______ _______ _____ _____    ______ ____
ROOT
ATOM      1  C   UNL     1       6.086   3.823 -22.666  0.00  0.00    +0.162 A 
ATOM      2  C   UNL     1       6.017   5.077 -22.814  0.00  0.00    +0.050 A 
ATOM      3  C   UNL     1       4.908   5.641 -22.953  0.00  0.00    +0.008 A 
ATOM      4  C   UNL     1       3.855   4.959 -22.945  0.00  0.00    -0.034 A 
ATOM      5  C   UNL     1       3.903   3.709 -22.798  0.00  0.00    +0.013 A 
ATOM      6  C   UNL     1       2.852   3.031 -22.791  0.00  0.00    +0.062 C 
ATOM      7  C   UNL     1       1.726   2.159 -22.766  0.00  0.00    +0.067 C 
ATOM      8  C   UNL     1       0.461   2.767 -22.920  0.00  0.00    +0.132 C 
ATOM      9  N   UNL     1       0.425   4.167 -23.083  0.00  0.00    +0.236 N 
ATOM     10  H   UNL     1      -0.461   4.659 -23.199  0.00  0.00    +0.203 HD
ATOM     11  C   UNL     1      -0.655   4.783 -23.226  0.00  0.00    +0.190 C 
ATOM     12  C   UNL     1       1.677   4.848 -23.077  0.00  0.00    +0.076 C 
ATOM     13  C   UNL     1       1.742   3.592 -22.929  0.00  0.00    +0.076 C 
ATOM     14  C   UNL     1       0.681   2.906 -22.921  0.00  0.00    -0.013 C 
ATOM     15  C   UNL     1       0.738   1.664 -22.775  0.00  0.00    +0.046 C 
ATOM     16  C   UNL     1       1.855   1.090 -22.635  0.00  0.00    +0.200 C 
ATOM     17  O   UNL     1       1.909  -0.153 -22.488  0.00  0.00    -0.288 OA
ATOM     18  C   UNL     1       2.907   1.767 -22.642  0.00  0.00    +0.180 C 
ATOM     19  C   UNL     1       3.253   0.575 -22.482  0.00  0.00    +0.065 C 
ATOM     20  O   UNL     1       4.413   1.768 -22.542  0.00  0.00    -0.473 OA
ATOM     21  C   UNL     1       2.726   5.529 -23.086  0.00  0.00    +0.090 C 
ATOM     22  C   UNL     1       5.020   3.136 -22.658  0.00  0.00    +0.167 A 
ENDROOT
BRANCH   1  24
ATOM     23  C   UNL     1       8.028   3.280 -23.461  0.00  0.00    +0.277 C 
ATOM     24  O   UNL     1       7.196   3.264 -22.527  0.00  0.00    -0.491 OA
ENDBRANCH   1  24
TORSDOF 1
ENDMDL
