MODEL 1
REMARK VINA RESULT:   -10.632      0.000      0.000
REMARK INTER + INTRA:         -10.843
REMARK INTER:                 -11.882
REMARK INTRA:                   1.039
REMARK UNBOUND:                 1.032
REMARK  Name = COC1=C[C@@]2(C)Oc3c(OC)ccc4c3[C@@]23CCN(C)[C@@H](C4)C3=C1            ZINC000253504979
REMARK  6 active torsions:
REMARK  status: ('A' for Active; 'I' for Inactive)
REMARK    1  A    between atoms: C_1  and  O_2
REMARK    2  A    between atoms: O_2  and  C_3
REMARK    3  A    between atoms: C_5  and  C_6
REMARK    4  A    between atoms: C_9  and  O_10
REMARK    5  A    between atoms: O_10  and  C_11
REMARK    6  A    between atoms: N_19  and  C_20
REMARK                            x       y       z     vdW  Elec       q    Type
REMARK                         _______ _______ _______ _____ _____    ______ ____
ROOT
ATOM      1  C   UNL     1       0.598   2.287 -22.473  0.00  0.00    +0.120 C 
ATOM      2  C   UNL     1      -0.361   2.278 -21.645  0.00  0.00    +0.066 C 
ATOM      3  C   UNL     1      -1.507   2.617 -22.016  0.00  0.00    +0.143 C 
ATOM      4  O   UNL     1      -2.955   2.826 -21.632  0.00  0.00    -0.477 OA
ATOM      5  C   UNL     1      -3.815   3.300 -22.769  0.00  0.00    +0.168 A 
ATOM      6  C   UNL     1      -4.977   3.644 -23.146  0.00  0.00    +0.162 A 
ATOM      7  C   UNL     1      -5.166   3.992 -24.350  0.00  0.00    +0.050 A 
ATOM      8  C   UNL     1      -4.215   3.999 -25.167  0.00  0.00    +0.008 A 
ATOM      9  C   UNL     1      -3.066   3.658 -24.791  0.00  0.00    -0.034 A 
ATOM     10  C   UNL     1      -2.096   3.664 -25.618  0.00  0.00    +0.094 C 
ATOM     11  C   UNL     1      -0.951   3.325 -25.243  0.00  0.00    +0.097 C 
ATOM     12  C   UNL     1      -0.759   2.976 -24.040  0.00  0.00    -0.003 C 
ATOM     13  N   UNL     1       0.389   2.957 -24.920  0.00  0.00    +0.239 N 
ATOM     14  H   UNL     1       1.141   2.974 -25.610  0.00  0.00    +0.204 HD
ATOM     15  C   UNL     1       1.302   2.982 -25.777  0.00  0.00    +0.191 C 
ATOM     16  C   UNL     1       0.639   2.563 -23.586  0.00  0.00    +0.133 C 
ATOM     17  C   UNL     1      -0.453   2.565 -22.688  0.00  0.00    +0.071 C 
ATOM     18  C   UNL     1      -2.858   3.309 -23.596  0.00  0.00    +0.016 A 
ATOM     19  C   UNL     1      -1.599   2.325 -20.800  0.00  0.00    +0.062 C 
ATOM     20  C   UNL     1      -1.711   2.970 -23.225  0.00  0.00    +0.074 C 
ATOM     21  C   UNL     1       0.401   2.633 -23.662  0.00  0.00    +0.051 C 
ENDROOT
BRANCH   1  23
ATOM     22  C   UNL     1       2.183   0.807 -22.380  0.00  0.00    +0.277 C 
ATOM     23  O   UNL     1       1.745   1.948 -22.104  0.00  0.00    -0.495 OA
ENDBRANCH   1  23
BRANCH   6  24
ATOM     24  O   UNL     1      -5.931   3.639 -22.333  0.00  0.00    -0.491 OA
ATOM     25  C   UNL     1      -6.225   2.588 -21.718  0.00  0.00    +0.277 C 
ENDBRANCH   6  24
TORSDOF 2
ENDMDL
MODEL 2
REMARK VINA RESULT:   -10.564      1.760      5.673
REMARK INTER + INTRA:         -10.767
REMARK INTER:                 -11.701
REMARK INTRA:                   0.934
REMARK UNBOUND:                 1.032
REMARK  Name = COC1=C[C@@]2(C)Oc3c(OC)ccc4c3[C@@]23CCN(C)[C@@H](C4)C3=C1            ZINC000253504979
REMARK  6 active torsions:
REMARK  status: ('A' for Active; 'I' for Inactive)
REMARK    1  A    between atoms: C_1  and  O_2
REMARK    2  A    between atoms: O_2  and  C_3
REMARK    3  A    between atoms: C_5  and  C_6
REMARK    4  A    between atoms: C_9  and  O_10
REMARK    5  A    between atoms: O_10  and  C_11
REMARK    6  A    between atoms: N_19  and  C_20
REMARK                            x       y       z     vdW  Elec       q    Type
REMARK                         _______ _______ _______ _____ _____    ______ ____
ROOT
ATOM      1  C   UNL     1      -3.192   3.769 -24.652  0.00  0.00    +0.120 C 
ATOM      2  C   UNL     1      -2.054   3.748 -25.209  0.00  0.00    +0.066 C 
ATOM      3  C   UNL     1      -1.065   3.298 -24.587  0.00  0.00    +0.143 C 
ATOM      4  O   UNL     1       0.417   2.997 -24.609  0.00  0.00    -0.477 OA
ATOM      5  C   UNL     1       0.925   2.392 -23.330  0.00  0.00    +0.168 A 
ATOM      6  C   UNL     1       1.927   1.937 -22.699  0.00  0.00    +0.162 A 
ATOM      7  C   UNL     1       1.778   1.507 -21.517  0.00  0.00    +0.050 A 
ATOM      8  C   UNL     1       0.652   1.530 -20.969  0.00  0.00    +0.008 A 
ATOM      9  C   UNL     1      -0.340   1.981 -21.595  0.00  0.00    -0.034 A 
ATOM     10  C   UNL     1      -1.487   2.006 -21.042  0.00  0.00    +0.094 C 
ATOM     11  C   UNL     1      -2.474   2.456 -21.667  0.00  0.00    +0.097 C 
ATOM     12  C   UNL     1      -2.329   2.886 -22.850  0.00  0.00    -0.003 C 
ATOM     13  N   UNL     1      -3.661   2.947 -22.290  0.00  0.00    +0.239 N 
ATOM     14  H   UNL     1      -4.564   2.951 -21.815  0.00  0.00    +0.204 HD
ATOM     15  C   UNL     1      -4.763   2.945 -21.694  0.00  0.00    +0.191 C 
ATOM     16  C   UNL     1      -3.534   3.434 -23.609  0.00  0.00    +0.133 C 
ATOM     17  C   UNL     1      -2.251   3.396 -24.201  0.00  0.00    +0.071 C 
ATOM     18  C   UNL     1      -0.211   2.413 -22.774  0.00  0.00    +0.016 A 
ATOM     19  C   UNL     1      -0.646   3.650 -25.716  0.00  0.00    +0.062 C 
ATOM     20  C   UNL     1      -1.201   2.863 -23.396  0.00  0.00    +0.074 C 
ATOM     21  C   UNL     1      -3.329   3.341 -23.481  0.00  0.00    +0.051 C 
ENDROOT
BRANCH   1  23
ATOM     22  C   UNL     1      -5.000   3.431 -25.804  0.00  0.00    +0.277 C 
ATOM     23  O   UNL     1      -4.183   4.218 -25.273  0.00  0.00    -0.495 OA
ENDBRANCH   1  23
BRANCH   6  24
ATOM     24  O   UNL     1       3.056   1.912 -23.243  0.00  0.00    -0.491 OA
ATOM     25  C   UNL     1       3.450   0.875 -23.825  0.00  0.00    +0.277 C 
ENDBRANCH   6  24
TORSDOF 2
ENDMDL
MODEL 3
REMARK VINA RESULT:   -10.451      1.268      4.920
REMARK INTER + INTRA:         -10.642
REMARK INTER:                 -11.611
REMARK INTRA:                   0.970
REMARK UNBOUND:                 1.032
REMARK  Name = COC1=C[C@@]2(C)Oc3c(OC)ccc4c3[C@@]23CCN(C)[C@@H](C4)C3=C1            ZINC000253504979
REMARK  6 active torsions:
REMARK  status: ('A' for Active; 'I' for Inactive)
REMARK    1  A    between atoms: C_1  and  O_2
REMARK    2  A    between atoms: O_2  and  C_3
REMARK    3  A    between atoms: C_5  and  C_6
REMARK    4  A    between atoms: C_9  and  O_10
REMARK    5  A    between atoms: O_10  and  C_11
REMARK    6  A    between atoms: N_19  and  C_20
REMARK                            x       y       z     vdW  Elec       q    Type
REMARK                         _______ _______ _______ _____ _____    ______ ____
ROOT
ATOM      1  C   UNL     1      -4.455   3.488 -22.452  0.00  0.00    +0.120 C 
ATOM      2  C   UNL     1      -3.541   3.271 -21.602  0.00  0.00    +0.066 C 
ATOM      3  C   UNL     1      -2.352   3.163 -21.979  0.00  0.00    +0.143 C 
ATOM      4  O   UNL     1      -0.911   2.932 -21.582  0.00  0.00    -0.477 OA
ATOM      5  C   UNL     1       0.041   2.946 -22.745  0.00  0.00    +0.168 A 
ATOM      6  C   UNL     1       1.246   2.837 -23.128  0.00  0.00    +0.162 A 
ATOM      7  C   UNL     1       1.521   2.946 -24.360  0.00  0.00    +0.050 A 
ATOM      8  C   UNL     1       0.615   3.160 -25.198  0.00  0.00    +0.008 A 
ATOM      9  C   UNL     1      -0.577   3.268 -24.817  0.00  0.00    -0.034 A 
ATOM     10  C   UNL     1      -1.502   3.485 -25.666  0.00  0.00    +0.094 C 
ATOM     11  C   UNL     1      -2.690   3.593 -25.284  0.00  0.00    +0.097 C 
ATOM     12  C   UNL     1      -2.969   3.485 -24.053  0.00  0.00    -0.003 C 
ATOM     13  N   UNL     1      -4.072   3.732 -24.956  0.00  0.00    +0.239 N 
ATOM     14  H   UNL     1      -4.786   3.906 -25.665  0.00  0.00    +0.204 HD
ATOM     15  C   UNL     1      -4.937   3.945 -25.836  0.00  0.00    +0.191 C 
ATOM     16  C   UNL     1      -4.418   3.616 -23.592  0.00  0.00    +0.133 C 
ATOM     17  C   UNL     1      -3.374   3.375 -22.670  0.00  0.00    +0.071 C 
ATOM     18  C   UNL     1      -0.871   3.162 -23.594  0.00  0.00    +0.016 A 
ATOM     19  C   UNL     1      -2.345   3.017 -20.734  0.00  0.00    +0.062 C 
ATOM     20  C   UNL     1      -2.061   3.271 -23.216  0.00  0.00    +0.074 C 
ATOM     21  C   UNL     1      -4.172   3.594 -23.669  0.00  0.00    +0.051 C 
ENDROOT
BRANCH   1  23
ATOM     22  C   UNL     1      -6.281   2.582 -21.707  0.00  0.00    +0.277 C 
ATOM     23  O   UNL     1      -5.644   3.596 -22.076  0.00  0.00    -0.495 OA
ENDBRANCH   1  23
BRANCH   6  24
ATOM     24  O   UNL     1       2.155   2.623 -22.294  0.00  0.00    -0.491 OA
ATOM     25  C   UNL     1       2.430   1.450 -21.951  0.00  0.00    +0.277 C 
ENDBRANCH   6  24
TORSDOF 2
ENDMDL
MODEL 4
REMARK VINA RESULT:   -10.332      1.881      3.535
REMARK INTER + INTRA:         -10.509
REMARK INTER:                 -11.530
REMARK INTRA:                   1.021
REMARK UNBOUND:                 1.032
REMARK  Name = COC1=C[C@@]2(C)Oc3c(OC)ccc4c3[C@@]23CCN(C)[C@@H](C4)C3=C1            ZINC000253504979
REMARK  6 active torsions:
REMARK  status: ('A' for Active; 'I' for Inactive)
REMARK    1  A    between atoms: C_1  and  O_2
REMARK    2  A    between atoms: O_2  and  C_3
REMARK    3  A    between atoms: C_5  and  C_6
REMARK    4  A    between atoms: C_9  and  O_10
REMARK    5  A    between atoms: O_10  and  C_11
REMARK    6  A    between atoms: N_19  and  C_20
REMARK                            x       y       z     vdW  Elec       q    Type
REMARK                         _______ _______ _______ _____ _____    ______ ____
ROOT
ATOM      1  C   UNL     1       2.789   2.551 -23.974  0.00  0.00    +0.120 C 
ATOM      2  C   UNL     1       1.932   3.132 -24.704  0.00  0.00    +0.066 C 
ATOM      3  C   UNL     1       0.734   3.171 -24.345  0.00  0.00    +0.143 C 
ATOM      4  O   UNL     1      -0.671   3.631 -24.664  0.00  0.00    -0.477 OA
ATOM      5  C   UNL     1      -1.680   3.247 -23.618  0.00  0.00    +0.168 A 
ATOM      6  C   UNL     1      -2.895   3.287 -23.254  0.00  0.00    +0.162 A 
ATOM      7  C   UNL     1      -3.238   2.743 -22.162  0.00  0.00    +0.050 A 
ATOM      8  C   UNL     1      -2.387   2.170 -21.442  0.00  0.00    +0.008 A 
ATOM      9  C   UNL     1      -1.185   2.132 -21.805  0.00  0.00    -0.034 A 
ATOM     10  C   UNL     1      -0.316   1.549 -21.076  0.00  0.00    +0.094 C 
ATOM     11  C   UNL     1       0.882   1.512 -21.439  0.00  0.00    +0.097 C 
ATOM     12  C   UNL     1       1.228   2.055 -22.530  0.00  0.00    -0.003 C 
ATOM     13  N   UNL     1       2.269   1.413 -21.758  0.00  0.00    +0.239 N 
ATOM     14  H   UNL     1       2.936   0.938 -21.149  0.00  0.00    +0.204 HD
ATOM     15  C   UNL     1       3.076   0.827 -21.001  0.00  0.00    +0.191 C 
ATOM     16  C   UNL     1       2.689   2.007 -22.968  0.00  0.00    +0.133 C 
ATOM     17  C   UNL     1       1.707   2.647 -23.759  0.00  0.00    +0.071 C 
ATOM     18  C   UNL     1      -0.825   2.667 -22.889  0.00  0.00    +0.016 A 
ATOM     19  C   UNL     1       0.796   3.774 -25.443  0.00  0.00    +0.062 C 
ATOM     20  C   UNL     1       0.376   2.628 -23.248  0.00  0.00    +0.074 C 
ATOM     21  C   UNL     1       2.440   2.016 -22.895  0.00  0.00    +0.051 C 
ENDROOT
BRANCH   1  23
ATOM     22  C   UNL     1       4.868   3.083 -23.646  0.00  0.00    +0.277 C 
ATOM     23  O   UNL     1       3.989   2.510 -24.331  0.00  0.00    -0.495 OA
ENDBRANCH   1  23
BRANCH   6  24
ATOM     24  O   UNL     1      -3.749   3.859 -23.970  0.00  0.00    -0.491 OA
ATOM     25  C   UNL     1      -4.967   3.767 -23.690  0.00  0.00    +0.277 C 
ENDBRANCH   6  24
TORSDOF 2
ENDMDL
MODEL 5
REMARK VINA RESULT:    -9.791      1.502      2.518
REMARK INTER + INTRA:          -9.904
REMARK INTER:                 -10.956
REMARK INTRA:                   1.052
REMARK UNBOUND:                 1.032
REMARK  Name = COC1=C[C@@]2(C)Oc3c(OC)ccc4c3[C@@]23CCN(C)[C@@H](C4)C3=C1            ZINC000253504979
REMARK  6 active torsions:
REMARK  status: ('A' for Active; 'I' for Inactive)
REMARK    1  A    between atoms: C_1  and  O_2
REMARK    2  A    between atoms: O_2  and  C_3
REMARK    3  A    between atoms: C_5  and  C_6
REMARK    4  A    between atoms: C_9  and  O_10
REMARK    5  A    between atoms: O_10  and  C_11
REMARK    6  A    between atoms: N_19  and  C_20
REMARK                            x       y       z     vdW  Elec       q    Type
REMARK                         _______ _______ _______ _____ _____    ______ ____
ROOT
ATOM      1  C   UNL     1       2.088   1.649 -21.488  0.00  0.00    +0.120 C 
ATOM      2  C   UNL     1       0.861   1.528 -21.197  0.00  0.00    +0.066 C 
ATOM      3  C   UNL     1      -0.012   1.927 -22.001  0.00  0.00    +0.143 C 
ATOM      4  O   UNL     1      -1.487   2.090 -22.294  0.00  0.00    -0.477 OA
ATOM      5  C   UNL     1      -1.767   2.732 -23.624  0.00  0.00    +0.168 A 
ATOM      6  C   UNL     1      -2.652   3.136 -24.439  0.00  0.00    +0.162 A 
ATOM      7  C   UNL     1      -2.296   3.657 -25.538  0.00  0.00    +0.050 A 
ATOM      8  C   UNL     1      -1.082   3.775 -25.823  0.00  0.00    +0.008 A 
ATOM      9  C   UNL     1      -0.208   3.374 -25.014  0.00  0.00    -0.034 A 
ATOM     10  C   UNL     1       1.028   3.492 -25.300  0.00  0.00    +0.094 C 
ATOM     11  C   UNL     1       1.899   3.093 -24.493  0.00  0.00    +0.097 C 
ATOM     12  C   UNL     1       1.547   2.571 -23.393  0.00  0.00    -0.003 C 
ATOM     13  N   UNL     1       2.968   2.671 -23.647  0.00  0.00    +0.239 N 
ATOM     14  H   UNL     1       3.947   2.782 -23.910  0.00  0.00    +0.204 HD
ATOM     15  C   UNL     1       4.165   2.814 -23.983  0.00  0.00    +0.191 C 
ATOM     16  C   UNL     1       2.610   2.085 -22.413  0.00  0.00    +0.133 C 
ATOM     17  C   UNL     1       1.233   1.965 -22.119  0.00  0.00    +0.071 C 
ATOM     18  C   UNL     1      -0.542   2.852 -23.915  0.00  0.00    +0.016 A 
ATOM     19  C   UNL     1      -0.626   1.462 -21.011  0.00  0.00    +0.062 C 
ATOM     20  C   UNL     1       0.332   2.453 -23.110  0.00  0.00    +0.074 C 
ATOM     21  C   UNL     1       2.429   2.167 -22.578  0.00  0.00    +0.051 C 
ENDROOT
BRANCH   1  23
ATOM     22  C   UNL     1       3.772   0.359 -21.030  0.00  0.00    +0.277 C 
ATOM     23  O   UNL     1       2.962   1.251 -20.686  0.00  0.00    -0.495 OA
ENDBRANCH   1  23
BRANCH   6  24
ATOM     24  O   UNL     1      -3.867   3.020 -24.159  0.00  0.00    -0.491 OA
ATOM     25  C   UNL     1      -4.698   3.841 -24.612  0.00  0.00    +0.277 C 
ENDBRANCH   6  24
TORSDOF 2
ENDMDL
MODEL 6
REMARK VINA RESULT:    -9.651      1.924      6.057
REMARK INTER + INTRA:          -9.748
REMARK INTER:                 -10.834
REMARK INTRA:                   1.086
REMARK UNBOUND:                 1.032
REMARK  Name = COC1=C[C@@]2(C)Oc3c(OC)ccc4c3[C@@]23CCN(C)[C@@H](C4)C3=C1            ZINC000253504979
REMARK  6 active torsions:
REMARK  status: ('A' for Active; 'I' for Inactive)
REMARK    1  A    between atoms: C_1  and  O_2
REMARK    2  A    between atoms: O_2  and  C_3
REMARK    3  A    between atoms: C_5  and  C_6
REMARK    4  A    between atoms: C_9  and  O_10
REMARK    5  A    between atoms: O_10  and  C_11
REMARK    6  A    between atoms: N_19  and  C_20
REMARK                            x       y       z     vdW  Elec       q    Type
REMARK                         _______ _______ _______ _____ _____    ______ ____
ROOT
ATOM      1  C   UNL     1      -1.537   3.473 -24.698  0.00  0.00    +0.120 C 
ATOM      2  C   UNL     1      -0.360   3.609 -25.146  0.00  0.00    +0.066 C 
ATOM      3  C   UNL     1       0.616   3.236 -24.456  0.00  0.00    +0.143 C 
ATOM      4  O   UNL     1       2.118   3.100 -24.353  0.00  0.00    -0.477 OA
ATOM      5  C   UNL     1       2.577   2.482 -23.061  0.00  0.00    +0.168 A 
ATOM      6  C   UNL     1       3.566   2.103 -22.361  0.00  0.00    +0.162 A 
ATOM      7  C   UNL     1       3.363   1.593 -21.219  0.00  0.00    +0.050 A 
ATOM      8  C   UNL     1       2.197   1.460 -20.780  0.00  0.00    +0.008 A 
ATOM      9  C   UNL     1       1.220   1.836 -21.474  0.00  0.00    -0.034 A 
ATOM     10  C   UNL     1       0.033   1.703 -21.031  0.00  0.00    +0.094 C 
ATOM     11  C   UNL     1      -0.940   2.078 -21.725  0.00  0.00    +0.097 C 
ATOM     12  C   UNL     1      -0.741   2.589 -22.867  0.00  0.00    -0.003 C 
ATOM     13  N   UNL     1      -2.116   2.470 -22.432  0.00  0.00    +0.239 N 
ATOM     14  H   UNL     1      -3.052   2.348 -22.044  0.00  0.00    +0.204 HD
ATOM     15  C   UNL     1      -3.258   2.314 -21.943  0.00  0.00    +0.191 C 
ATOM     16  C   UNL     1      -1.930   3.044 -23.709  0.00  0.00    +0.133 C 
ATOM     17  C   UNL     1      -0.604   3.180 -24.178  0.00  0.00    +0.071 C 
ATOM     18  C   UNL     1       1.402   2.347 -22.614  0.00  0.00    +0.016 A 
ATOM     19  C   UNL     1       1.090   3.695 -25.522  0.00  0.00    +0.062 C 
ATOM     20  C   UNL     1       0.425   2.720 -23.305  0.00  0.00    +0.074 C 
ATOM     21  C   UNL     1      -1.727   2.967 -23.567  0.00  0.00    +0.051 C 
ENDROOT
BRANCH   1  23
ATOM     22  C   UNL     1      -3.341   4.661 -24.916  0.00  0.00    +0.277 C 
ATOM     23  O   UNL     1      -2.514   3.846 -25.387  0.00  0.00    -0.495 OA
ENDBRANCH   1  23
BRANCH   6  24
ATOM     24  O   UNL     1       4.733   2.234 -22.797  0.00  0.00    -0.491 OA
ATOM     25  C   UNL     1       5.609   1.386 -22.509  0.00  0.00    +0.277 C 
ENDBRANCH   6  24
TORSDOF 2
ENDMDL
MODEL 7
REMARK VINA RESULT:    -9.294      1.513      5.463
REMARK INTER + INTRA:          -9.348
REMARK INTER:                 -10.340
REMARK INTRA:                   0.992
REMARK UNBOUND:                 1.032
REMARK  Name = COC1=C[C@@]2(C)Oc3c(OC)ccc4c3[C@@]23CCN(C)[C@@H](C4)C3=C1            ZINC000253504979
REMARK  6 active torsions:
REMARK  status: ('A' for Active; 'I' for Inactive)
REMARK    1  A    between atoms: C_1  and  O_2
REMARK    2  A    between atoms: O_2  and  C_3
REMARK    3  A    between atoms: C_5  and  C_6
REMARK    4  A    between atoms: C_9  and  O_10
REMARK    5  A    between atoms: O_10  and  C_11
REMARK    6  A    between atoms: N_19  and  C_20
REMARK                            x       y       z     vdW  Elec       q    Type
REMARK                         _______ _______ _______ _____ _____    ______ ____
ROOT
ATOM      1  C   UNL     1      -2.081   2.350 -22.259  0.00  0.00    +0.120 C 
ATOM      2  C   UNL     1      -1.210   1.938 -21.437  0.00  0.00    +0.066 C 
ATOM      3  C   UNL     1       0.002   1.963 -21.751  0.00  0.00    +0.143 C 
ATOM      4  O   UNL     1       1.427   1.670 -21.335  0.00  0.00    -0.477 OA
ATOM      5  C   UNL     1       2.442   2.016 -22.387  0.00  0.00    +0.168 A 
ATOM      6  C   UNL     1       3.670   2.042 -22.706  0.00  0.00    +0.162 A 
ATOM      7  C   UNL     1       4.011   2.480 -23.845  0.00  0.00    +0.050 A 
ATOM      8  C   UNL     1       3.146   2.887 -24.655  0.00  0.00    +0.008 A 
ATOM      9  C   UNL     1       1.931   2.861 -24.338  0.00  0.00    -0.034 A 
ATOM     10  C   UNL     1       1.047   3.274 -25.158  0.00  0.00    +0.094 C 
ATOM     11  C   UNL     1      -0.164   3.247 -24.841  0.00  0.00    +0.097 C 
ATOM     12  C   UNL     1      -0.508   2.809 -23.703  0.00  0.00    -0.003 C 
ATOM     13  N   UNL     1      -1.567   3.260 -24.580  0.00  0.00    +0.239 N 
ATOM     14  H   UNL     1      -2.245   3.598 -25.262  0.00  0.00    +0.204 HD
ATOM     15  C   UNL     1      -2.388   3.678 -25.427  0.00  0.00    +0.191 C 
ATOM     16  C   UNL     1      -1.985   2.778 -23.320  0.00  0.00    +0.133 C 
ATOM     17  C   UNL     1      -0.987   2.326 -22.427  0.00  0.00    +0.071 C 
ATOM     18  C   UNL     1       1.572   2.428 -23.208  0.00  0.00    +0.016 A 
ATOM     19  C   UNL     1      -0.055   1.491 -20.591  0.00  0.00    +0.062 C 
ATOM     20  C   UNL     1       0.359   2.402 -22.894  0.00  0.00    +0.074 C 
ATOM     21  C   UNL     1      -1.734   2.783 -23.383  0.00  0.00    +0.051 C 
ENDROOT
BRANCH   1  23
ATOM     22  C   UNL     1      -3.900   3.394 -21.699  0.00  0.00    +0.277 C 
ATOM     23  O   UNL     1      -3.294   2.326 -21.947  0.00  0.00    -0.495 OA
ENDBRANCH   1  23
BRANCH   6  24
ATOM     24  O   UNL     1       4.539   1.636 -21.899  0.00  0.00    -0.491 OA
ATOM     25  C   UNL     1       5.734   1.532 -22.262  0.00  0.00    +0.277 C 
ENDBRANCH   6  24
TORSDOF 2
ENDMDL
MODEL 8
REMARK VINA RESULT:    -8.639      3.186      6.812
REMARK INTER + INTRA:          -8.617
REMARK INTER:                  -9.649
REMARK INTRA:                   1.032
REMARK UNBOUND:                 1.032
REMARK  Name = COC1=C[C@@]2(C)Oc3c(OC)ccc4c3[C@@]23CCN(C)[C@@H](C4)C3=C1            ZINC000253504979
REMARK  6 active torsions:
REMARK  status: ('A' for Active; 'I' for Inactive)
REMARK    1  A    between atoms: C_1  and  O_2
REMARK    2  A    between atoms: O_2  and  C_3
REMARK    3  A    between atoms: C_5  and  C_6
REMARK    4  A    between atoms: C_9  and  O_10
REMARK    5  A    between atoms: O_10  and  C_11
REMARK    6  A    between atoms: N_19  and  C_20
REMARK                            x       y       z     vdW  Elec       q    Type
REMARK                         _______ _______ _______ _____ _____    ______ ____
ROOT
ATOM      1  C   UNL     1       0.471   1.802 -22.608  0.00  0.00    +0.120 C 
ATOM      2  C   UNL     1       1.542   1.134 -22.497  0.00  0.00    +0.066 C 
ATOM      3  C   UNL     1       2.649   1.716 -22.570  0.00  0.00    +0.143 C 
ATOM      4  O   UNL     1       4.155   1.586 -22.534  0.00  0.00    -0.477 OA
ATOM      5  C   UNL     1       4.875   2.892 -22.718  0.00  0.00    +0.168 A 
ATOM      6  C   UNL     1       5.996   3.482 -22.792  0.00  0.00    +0.162 A 
ATOM      7  C   UNL     1       6.031   4.735 -22.976  0.00  0.00    +0.050 A 
ATOM      8  C   UNL     1       4.970   5.392 -23.085  0.00  0.00    +0.008 A 
ATOM      9  C   UNL     1       3.861   4.806 -23.012  0.00  0.00    -0.034 A 
ATOM     10  C   UNL     1       2.779   5.470 -23.122  0.00  0.00    +0.094 C 
ATOM     11  C   UNL     1       1.674   4.885 -23.048  0.00  0.00    +0.097 C 
ATOM     12  C   UNL     1       1.636   3.632 -22.864  0.00  0.00    -0.003 C 
ATOM     13  N   UNL     1       0.367   4.318 -22.980  0.00  0.00    +0.239 N 
ATOM     14  H   UNL     1      -0.478   4.882 -23.073  0.00  0.00    +0.204 HD
ATOM     15  C   UNL     1      -0.661   5.023 -23.095  0.00  0.00    +0.191 C 
ATOM     16  C   UNL     1       0.287   2.923 -22.775  0.00  0.00    +0.133 C 
ATOM     17  C   UNL     1       1.501   2.208 -22.656  0.00  0.00    +0.071 C 
ATOM     18  C   UNL     1       3.806   3.559 -22.829  0.00  0.00    +0.016 A 
ATOM     19  C   UNL     1       2.897   0.501 -22.388  0.00  0.00    +0.062 C 
ATOM     20  C   UNL     1       2.698   2.977 -22.756  0.00  0.00    +0.074 C 
ATOM     21  C   UNL     1       0.517   3.042 -22.790  0.00  0.00    +0.051 C 
ENDROOT
BRANCH   1  23
ATOM     22  C   UNL     1      -1.443   1.522 -21.625  0.00  0.00    +0.277 C 
ATOM     23  O   UNL     1      -0.636   1.222 -22.535  0.00  0.00    -0.495 OA
ENDBRANCH   1  23
BRANCH   6  24
ATOM     24  O   UNL     1       7.060   2.829 -22.684  0.00  0.00    -0.491 OA
ATOM     25  C   UNL     1       8.040   3.100 -23.416  0.00  0.00    +0.277 C 
ENDBRANCH   6  24
TORSDOF 2
ENDMDL
