MODEL 1
REMARK VINA RESULT:   -10.234      0.000      0.000
REMARK INTER + INTRA:         -10.234
REMARK INTER:                 -10.234
REMARK INTRA:                   0.000
REMARK UNBOUND:                 0.000
REMARK  Name = C=C1C(=O)O[C@@H]2C[C@]3(C)CCC[C@H](C)[C@]34O[C@H]4[C@@H]12           ZINC001857795304
REMARK  2 active torsions:
REMARK  status: ('A' for Active; 'I' for Inactive)
REMARK    1  A    between atoms: C_8  and  C_9
REMARK    2  A    between atoms: C_13  and  C_14
REMARK                            x       y       z     vdW  Elec       q    Type
REMARK                         _______ _______ _______ _____ _____    ______ ____
ROOT
ATOM      1  C   UNL     1       0.953   2.688 -24.196  0.00  0.00    +0.020 C 
ATOM      2  C   UNL     1       0.255   2.436 -23.129  0.00  0.00    +0.039 C 
ATOM      3  C   UNL     1       0.704   1.915 -22.027  0.00  0.00    +0.335 C 
ATOM      4  O   UNL     1      -0.289   1.819 -21.194  0.00  0.00    -0.457 OA
ATOM      5  C   UNL     1      -1.353   2.280 -21.781  0.00  0.00    +0.188 C 
ATOM      6  C   UNL     1      -2.583   2.403 -21.382  0.00  0.00    +0.055 C 
ATOM      7  C   UNL     1      -3.479   2.906 -22.179  0.00  0.00    +0.003 C 
ATOM      8  C   UNL     1      -4.710   3.028 -21.779  0.00  0.00    +0.010 C 
ATOM      9  C   UNL     1      -5.605   3.532 -22.575  0.00  0.00    +0.001 C 
ATOM     10  C   UNL     1      -5.269   3.914 -23.772  0.00  0.00    +0.006 C 
ATOM     11  C   UNL     1      -4.039   3.792 -24.172  0.00  0.00    +0.021 C 
ATOM     12  C   UNL     1      -3.702   4.174 -25.368  0.00  0.00    +0.010 C 
ATOM     13  C   UNL     1      -3.814   2.524 -20.982  0.00  0.00    +0.014 C 
ATOM     14  C   UNL     1      -3.143   3.288 -23.375  0.00  0.00    +0.105 C 
ATOM     15  O   UNL     1      -2.807   3.670 -24.572  0.00  0.00    -0.363 OA
ATOM     16  C   UNL     1      -1.912   3.166 -23.775  0.00  0.00    +0.163 C 
ATOM     17  O   UNL     1       1.931   1.554 -21.797  0.00  0.00    -0.245 OA
ATOM     18  C   UNL     1      -1.016   2.662 -22.978  0.00  0.00    +0.098 C 
ENDROOT
TORSDOF 0
ENDMDL
MODEL 2
REMARK VINA RESULT:   -10.045      1.280      2.614
REMARK INTER + INTRA:         -10.045
REMARK INTER:                 -10.045
REMARK INTRA:                   0.000
REMARK UNBOUND:                 0.000
REMARK  Name = C=C1C(=O)O[C@@H]2C[C@]3(C)CCC[C@H](C)[C@]34O[C@H]4[C@@H]12           ZINC001857795304
REMARK  2 active torsions:
REMARK  status: ('A' for Active; 'I' for Inactive)
REMARK    1  A    between atoms: C_8  and  C_9
REMARK    2  A    between atoms: C_13  and  C_14
REMARK                            x       y       z     vdW  Elec       q    Type
REMARK                         _______ _______ _______ _____ _____    ______ ____
ROOT
ATOM      1  C   UNL     1       0.100   1.541 -20.995  0.00  0.00    +0.020 C 
ATOM      2  C   UNL     1      -0.011   1.966 -22.219  0.00  0.00    +0.039 C 
ATOM      3  C   UNL     1       0.940   2.002 -23.104  0.00  0.00    +0.335 C 
ATOM      4  O   UNL     1       0.446   2.487 -24.204  0.00  0.00    -0.457 OA
ATOM      5  C   UNL     1      -0.811   2.750 -24.000  0.00  0.00    +0.188 C 
ATOM      6  C   UNL     1      -1.734   3.241 -24.771  0.00  0.00    +0.055 C 
ATOM      7  C   UNL     1      -2.940   3.410 -24.316  0.00  0.00    +0.003 C 
ATOM      8  C   UNL     1      -3.864   3.901 -25.089  0.00  0.00    +0.010 C 
ATOM      9  C   UNL     1      -5.069   4.069 -24.634  0.00  0.00    +0.001 C 
ATOM     10  C   UNL     1      -5.352   3.747 -23.407  0.00  0.00    +0.006 C 
ATOM     11  C   UNL     1      -4.429   3.256 -22.634  0.00  0.00    +0.021 C 
ATOM     12  C   UNL     1      -4.711   2.934 -21.407  0.00  0.00    +0.010 C 
ATOM     13  C   UNL     1      -2.657   3.732 -25.543  0.00  0.00    +0.014 C 
ATOM     14  C   UNL     1      -3.223   3.087 -23.089  0.00  0.00    +0.105 C 
ATOM     15  O   UNL     1      -3.505   2.765 -21.861  0.00  0.00    -0.363 OA
ATOM     16  C   UNL     1      -2.300   2.596 -22.316  0.00  0.00    +0.163 C 
ATOM     17  O   UNL     1       2.168   1.622 -22.921  0.00  0.00    -0.245 OA
ATOM     18  C   UNL     1      -1.093   2.427 -22.772  0.00  0.00    +0.098 C 
ENDROOT
TORSDOF 0
ENDMDL
MODEL 3
REMARK VINA RESULT:    -9.720      1.646      4.539
REMARK INTER + INTRA:          -9.720
REMARK INTER:                  -9.720
REMARK INTRA:                   0.000
REMARK UNBOUND:                 0.000
REMARK  Name = C=C1C(=O)O[C@@H]2C[C@]3(C)CCC[C@H](C)[C@]34O[C@H]4[C@@H]12           ZINC001857795304
REMARK  2 active torsions:
REMARK  status: ('A' for Active; 'I' for Inactive)
REMARK    1  A    between atoms: C_8  and  C_9
REMARK    2  A    between atoms: C_13  and  C_14
REMARK                            x       y       z     vdW  Elec       q    Type
REMARK                         _______ _______ _______ _____ _____    ______ ____
ROOT
ATOM      1  C   UNL     1      -4.777   4.232 -24.396  0.00  0.00    +0.020 C 
ATOM      2  C   UNL     1      -4.318   3.591 -23.362  0.00  0.00    +0.039 C 
ATOM      3  C   UNL     1      -5.010   3.211 -22.329  0.00  0.00    +0.335 C 
ATOM      4  O   UNL     1      -4.206   2.603 -21.509  0.00  0.00    -0.457 OA
ATOM      5  C   UNL     1      -3.017   2.606 -22.035  0.00  0.00    +0.188 C 
ATOM      6  C   UNL     1      -1.881   2.132 -21.619  0.00  0.00    +0.055 C 
ATOM      7  C   UNL     1      -0.813   2.268 -22.348  0.00  0.00    +0.003 C 
ATOM      8  C   UNL     1       0.324   1.794 -21.932  0.00  0.00    +0.010 C 
ATOM      9  C   UNL     1       1.391   1.931 -22.660  0.00  0.00    +0.001 C 
ATOM     10  C   UNL     1       1.322   2.542 -23.806  0.00  0.00    +0.006 C 
ATOM     11  C   UNL     1       0.186   3.016 -24.222  0.00  0.00    +0.021 C 
ATOM     12  C   UNL     1       0.117   3.627 -25.368  0.00  0.00    +0.010 C 
ATOM     13  C   UNL     1      -0.744   1.658 -21.203  0.00  0.00    +0.014 C 
ATOM     14  C   UNL     1      -0.882   2.879 -23.493  0.00  0.00    +0.105 C 
ATOM     15  O   UNL     1      -0.951   3.491 -24.639  0.00  0.00    -0.363 OA
ATOM     16  C   UNL     1      -2.018   3.354 -23.910  0.00  0.00    +0.163 C 
ATOM     17  O   UNL     1      -6.281   3.406 -22.149  0.00  0.00    -0.245 OA
ATOM     18  C   UNL     1      -3.086   3.217 -23.180  0.00  0.00    +0.098 C 
ENDROOT
TORSDOF 0
ENDMDL
MODEL 4
REMARK VINA RESULT:    -9.503      1.352      5.097
REMARK INTER + INTRA:          -9.503
REMARK INTER:                  -9.503
REMARK INTRA:                   0.000
REMARK UNBOUND:                 0.000
REMARK  Name = C=C1C(=O)O[C@@H]2C[C@]3(C)CCC[C@H](C)[C@]34O[C@H]4[C@@H]12           ZINC001857795304
REMARK  2 active torsions:
REMARK  status: ('A' for Active; 'I' for Inactive)
REMARK    1  A    between atoms: C_8  and  C_9
REMARK    2  A    between atoms: C_13  and  C_14
REMARK                            x       y       z     vdW  Elec       q    Type
REMARK                         _______ _______ _______ _____ _____    ______ ____
ROOT
ATOM      1  C   UNL     1      -4.072   2.252 -20.578  0.00  0.00    +0.020 C 
ATOM      2  C   UNL     1      -3.961   2.756 -21.772  0.00  0.00    +0.039 C 
ATOM      3  C   UNL     1      -4.919   3.291 -22.468  0.00  0.00    +0.335 C 
ATOM      4  O   UNL     1      -4.422   3.677 -23.605  0.00  0.00    -0.457 OA
ATOM      5  C   UNL     1      -3.156   3.381 -23.612  0.00  0.00    +0.188 C 
ATOM      6  C   UNL     1      -2.226   3.556 -24.502  0.00  0.00    +0.055 C 
ATOM      7  C   UNL     1      -1.010   3.162 -24.261  0.00  0.00    +0.003 C 
ATOM      8  C   UNL     1      -0.081   3.338 -25.152  0.00  0.00    +0.010 C 
ATOM      9  C   UNL     1       1.134   2.944 -24.910  0.00  0.00    +0.001 C 
ATOM     10  C   UNL     1       1.419   2.374 -23.777  0.00  0.00    +0.006 C 
ATOM     11  C   UNL     1       0.489   2.198 -22.886  0.00  0.00    +0.021 C 
ATOM     12  C   UNL     1       0.774   1.628 -21.753  0.00  0.00    +0.010 C 
ATOM     13  C   UNL     1      -1.296   3.732 -25.394  0.00  0.00    +0.014 C 
ATOM     14  C   UNL     1      -0.726   2.592 -23.128  0.00  0.00    +0.105 C 
ATOM     15  O   UNL     1      -0.441   2.023 -21.994  0.00  0.00    -0.363 OA
ATOM     16  C   UNL     1      -1.656   2.417 -22.236  0.00  0.00    +0.163 C 
ATOM     17  O   UNL     1      -6.157   3.417 -22.094  0.00  0.00    -0.245 OA
ATOM     18  C   UNL     1      -2.871   2.811 -22.479  0.00  0.00    +0.098 C 
ENDROOT
TORSDOF 0
ENDMDL
MODEL 5
REMARK VINA RESULT:    -9.353      1.863      3.079
REMARK INTER + INTRA:          -9.353
REMARK INTER:                  -9.353
REMARK INTRA:                   0.000
REMARK UNBOUND:                 0.000
REMARK  Name = C=C1C(=O)O[C@@H]2C[C@]3(C)CCC[C@H](C)[C@]34O[C@H]4[C@@H]12           ZINC001857795304
REMARK  2 active torsions:
REMARK  status: ('A' for Active; 'I' for Inactive)
REMARK    1  A    between atoms: C_8  and  C_9
REMARK    2  A    between atoms: C_13  and  C_14
REMARK                            x       y       z     vdW  Elec       q    Type
REMARK                         _______ _______ _______ _____ _____    ______ ____
ROOT
ATOM      1  C   UNL     1       1.230   4.154 -23.032  0.00  0.00    +0.020 C 
ATOM      2  C   UNL     1       0.263   4.010 -23.889  0.00  0.00    +0.039 C 
ATOM      3  C   UNL     1       0.388   3.963 -25.182  0.00  0.00    +0.335 C 
ATOM      4  O   UNL     1      -0.797   3.811 -25.694  0.00  0.00    -0.457 OA
ATOM      5  C   UNL     1      -1.655   3.764 -24.718  0.00  0.00    +0.188 C 
ATOM      6  C   UNL     1      -2.947   3.625 -24.700  0.00  0.00    +0.055 C 
ATOM      7  C   UNL     1      -3.584   3.608 -23.567  0.00  0.00    +0.003 C 
ATOM      8  C   UNL     1      -4.877   3.469 -23.550  0.00  0.00    +0.010 C 
ATOM      9  C   UNL     1      -5.513   3.452 -22.418  0.00  0.00    +0.001 C 
ATOM     10  C   UNL     1      -4.859   3.575 -21.302  0.00  0.00    +0.006 C 
ATOM     11  C   UNL     1      -3.566   3.714 -21.318  0.00  0.00    +0.021 C 
ATOM     12  C   UNL     1      -2.911   3.837 -20.202  0.00  0.00    +0.010 C 
ATOM     13  C   UNL     1      -4.239   3.485 -24.684  0.00  0.00    +0.014 C 
ATOM     14  C   UNL     1      -2.929   3.731 -22.451  0.00  0.00    +0.105 C 
ATOM     15  O   UNL     1      -2.273   3.853 -21.335  0.00  0.00    -0.363 OA
ATOM     16  C   UNL     1      -1.636   3.870 -22.468  0.00  0.00    +0.163 C 
ATOM     17  O   UNL     1       1.501   4.053 -25.845  0.00  0.00    -0.245 OA
ATOM     18  C   UNL     1      -0.999   3.886 -23.602  0.00  0.00    +0.098 C 
ENDROOT
TORSDOF 0
ENDMDL
MODEL 6
REMARK VINA RESULT:    -9.000      1.211      5.379
REMARK INTER + INTRA:          -9.000
REMARK INTER:                  -9.000
REMARK INTRA:                   0.000
REMARK UNBOUND:                 0.000
REMARK  Name = C=C1C(=O)O[C@@H]2C[C@]3(C)CCC[C@H](C)[C@]34O[C@H]4[C@@H]12           ZINC001857795304
REMARK  2 active torsions:
REMARK  status: ('A' for Active; 'I' for Inactive)
REMARK    1  A    between atoms: C_8  and  C_9
REMARK    2  A    between atoms: C_13  and  C_14
REMARK                            x       y       z     vdW  Elec       q    Type
REMARK                         _______ _______ _______ _____ _____    ______ ____
ROOT
ATOM      1  C   UNL     1      -4.522   3.360 -22.438  0.00  0.00    +0.020 C 
ATOM      2  C   UNL     1      -3.732   3.699 -23.414  0.00  0.00    +0.039 C 
ATOM      3  C   UNL     1      -4.073   4.365 -24.477  0.00  0.00    +0.335 C 
ATOM      4  O   UNL     1      -3.015   4.509 -25.218  0.00  0.00    -0.457 OA
ATOM      5  C   UNL     1      -2.019   3.931 -24.613  0.00  0.00    +0.188 C 
ATOM      6  C   UNL     1      -0.767   3.795 -24.932  0.00  0.00    +0.055 C 
ATOM      7  C   UNL     1       0.043   3.160 -24.138  0.00  0.00    +0.003 C 
ATOM      8  C   UNL     1       1.295   3.025 -24.458  0.00  0.00    +0.010 C 
ATOM      9  C   UNL     1       2.104   2.389 -23.664  0.00  0.00    +0.001 C 
ATOM     10  C   UNL     1       1.661   1.889 -22.549  0.00  0.00    +0.006 C 
ATOM     11  C   UNL     1       0.408   2.024 -22.228  0.00  0.00    +0.021 C 
ATOM     12  C   UNL     1      -0.036   1.523 -21.114  0.00  0.00    +0.010 C 
ATOM     13  C   UNL     1       0.486   3.660 -25.253  0.00  0.00    +0.014 C 
ATOM     14  C   UNL     1      -0.401   2.659 -23.023  0.00  0.00    +0.105 C 
ATOM     15  O   UNL     1      -0.845   2.159 -21.908  0.00  0.00    -0.363 OA
ATOM     16  C   UNL     1      -1.654   2.794 -22.703  0.00  0.00    +0.163 C 
ATOM     17  O   UNL     1      -5.262   4.810 -24.751  0.00  0.00    -0.245 OA
ATOM     18  C   UNL     1      -2.463   3.430 -23.498  0.00  0.00    +0.098 C 
ENDROOT
TORSDOF 0
ENDMDL
MODEL 7
REMARK VINA RESULT:    -8.751      1.574      2.533
REMARK INTER + INTRA:          -8.751
REMARK INTER:                  -8.751
REMARK INTRA:                   0.000
REMARK UNBOUND:                 0.000
REMARK  Name = C=C1C(=O)O[C@@H]2C[C@]3(C)CCC[C@H](C)[C@]34O[C@H]4[C@@H]12           ZINC001857795304
REMARK  2 active torsions:
REMARK  status: ('A' for Active; 'I' for Inactive)
REMARK    1  A    between atoms: C_8  and  C_9
REMARK    2  A    between atoms: C_13  and  C_14
REMARK                            x       y       z     vdW  Elec       q    Type
REMARK                         _______ _______ _______ _____ _____    ______ ____
ROOT
ATOM      1  C   UNL     1       3.492   1.750 -23.026  0.00  0.00    +0.020 C 
ATOM      2  C   UNL     1       2.484   1.617 -22.216  0.00  0.00    +0.039 C 
ATOM      3  C   UNL     1       2.522   1.087 -21.030  0.00  0.00    +0.335 C 
ATOM      4  O   UNL     1       1.322   1.134 -20.531  0.00  0.00    -0.457 OA
ATOM      5  C   UNL     1       0.543   1.693 -21.409  0.00  0.00    +0.188 C 
ATOM      6  C   UNL     1      -0.727   1.968 -21.395  0.00  0.00    +0.055 C 
ATOM      7  C   UNL     1      -1.280   2.542 -22.423  0.00  0.00    +0.003 C 
ATOM      8  C   UNL     1      -2.550   2.817 -22.408  0.00  0.00    +0.010 C 
ATOM      9  C   UNL     1      -3.102   3.391 -23.435  0.00  0.00    +0.001 C 
ATOM     10  C   UNL     1      -2.385   3.690 -24.477  0.00  0.00    +0.006 C 
ATOM     11  C   UNL     1      -1.114   3.415 -24.492  0.00  0.00    +0.021 C 
ATOM     12  C   UNL     1      -0.396   3.713 -25.533  0.00  0.00    +0.010 C 
ATOM     13  C   UNL     1      -1.997   2.243 -21.381  0.00  0.00    +0.014 C 
ATOM     14  C   UNL     1      -0.561   2.841 -23.464  0.00  0.00    +0.105 C 
ATOM     15  O   UNL     1       0.157   3.139 -24.506  0.00  0.00    -0.363 OA
ATOM     16  C   UNL     1       0.709   2.565 -23.479  0.00  0.00    +0.163 C 
ATOM     17  O   UNL     1       3.573   0.597 -20.445  0.00  0.00    -0.245 OA
ATOM     18  C   UNL     1       1.261   1.991 -22.451  0.00  0.00    +0.098 C 
ENDROOT
TORSDOF 0
ENDMDL
MODEL 8
REMARK VINA RESULT:    -8.595      2.954      4.536
REMARK INTER + INTRA:          -8.595
REMARK INTER:                  -8.595
REMARK INTRA:                   0.000
REMARK UNBOUND:                 0.000
REMARK  Name = C=C1C(=O)O[C@@H]2C[C@]3(C)CCC[C@H](C)[C@]34O[C@H]4[C@@H]12           ZINC001857795304
REMARK  2 active torsions:
REMARK  status: ('A' for Active; 'I' for Inactive)
REMARK    1  A    between atoms: C_8  and  C_9
REMARK    2  A    between atoms: C_13  and  C_14
REMARK                            x       y       z     vdW  Elec       q    Type
REMARK                         _______ _______ _______ _____ _____    ______ ____
ROOT
ATOM      1  C   UNL     1       5.494   2.330 -21.859  0.00  0.00    +0.020 C 
ATOM      2  C   UNL     1       4.395   1.700 -21.568  0.00  0.00    +0.039 C 
ATOM      3  C   UNL     1       4.305   0.591 -20.894  0.00  0.00    +0.335 C 
ATOM      4  O   UNL     1       3.047   0.274 -20.809  0.00  0.00    -0.457 OA
ATOM      5  C   UNL     1       2.359   1.186 -21.430  0.00  0.00    +0.188 C 
ATOM      6  C   UNL     1       1.083   1.329 -21.630  0.00  0.00    +0.055 C 
ATOM      7  C   UNL     1       0.639   2.352 -22.298  0.00  0.00    +0.003 C 
ATOM      8  C   UNL     1      -0.638   2.494 -22.497  0.00  0.00    +0.010 C 
ATOM      9  C   UNL     1      -1.081   3.517 -23.165  0.00  0.00    +0.001 C 
ATOM     10  C   UNL     1      -0.249   4.398 -23.634  0.00  0.00    +0.006 C 
ATOM     11  C   UNL     1       1.028   4.256 -23.435  0.00  0.00    +0.021 C 
ATOM     12  C   UNL     1       1.862   5.137 -23.903  0.00  0.00    +0.010 C 
ATOM     13  C   UNL     1      -0.194   1.471 -21.829  0.00  0.00    +0.014 C 
ATOM     14  C   UNL     1       1.472   3.233 -22.767  0.00  0.00    +0.105 C 
ATOM     15  O   UNL     1       2.306   4.114 -23.235  0.00  0.00    -0.363 OA
ATOM     16  C   UNL     1       2.749   3.091 -22.567  0.00  0.00    +0.163 C 
ATOM     17  O   UNL     1       5.297  -0.081 -20.394  0.00  0.00    -0.245 OA
ATOM     18  C   UNL     1       3.193   2.067 -21.899  0.00  0.00    +0.098 C 
ENDROOT
TORSDOF 0
ENDMDL
MODEL 9
REMARK VINA RESULT:    -8.364      1.608      3.450
REMARK INTER + INTRA:          -8.364
REMARK INTER:                  -8.364
REMARK INTRA:                   0.000
REMARK UNBOUND:                 0.000
REMARK  Name = C=C1C(=O)O[C@@H]2C[C@]3(C)CCC[C@H](C)[C@]34O[C@H]4[C@@H]12           ZINC001857795304
REMARK  2 active torsions:
REMARK  status: ('A' for Active; 'I' for Inactive)
REMARK    1  A    between atoms: C_8  and  C_9
REMARK    2  A    between atoms: C_13  and  C_14
REMARK                            x       y       z     vdW  Elec       q    Type
REMARK                         _______ _______ _______ _____ _____    ______ ____
ROOT
ATOM      1  C   UNL     1       2.613   1.738 -21.346  0.00  0.00    +0.020 C 
ATOM      2  C   UNL     1       2.313   2.213 -22.519  0.00  0.00    +0.039 C 
ATOM      3  C   UNL     1       3.153   2.472 -23.476  0.00  0.00    +0.335 C 
ATOM      4  O   UNL     1       2.480   2.932 -24.488  0.00  0.00    -0.457 OA
ATOM      5  C   UNL     1       1.223   2.958 -24.156  0.00  0.00    +0.188 C 
ATOM      6  C   UNL     1       0.159   3.328 -24.804  0.00  0.00    +0.055 C 
ATOM      7  C   UNL     1      -1.008   3.254 -24.236  0.00  0.00    +0.003 C 
ATOM      8  C   UNL     1      -2.072   3.624 -24.885  0.00  0.00    +0.010 C 
ATOM      9  C   UNL     1      -3.238   3.550 -24.317  0.00  0.00    +0.001 C 
ATOM     10  C   UNL     1      -3.342   3.106 -23.099  0.00  0.00    +0.006 C 
ATOM     11  C   UNL     1      -2.278   2.736 -22.450  0.00  0.00    +0.021 C 
ATOM     12  C   UNL     1      -2.381   2.292 -21.233  0.00  0.00    +0.010 C 
ATOM     13  C   UNL     1      -0.905   3.698 -25.453  0.00  0.00    +0.014 C 
ATOM     14  C   UNL     1      -1.111   2.810 -23.019  0.00  0.00    +0.105 C 
ATOM     15  O   UNL     1      -1.213   2.365 -21.801  0.00  0.00    -0.363 OA
ATOM     16  C   UNL     1      -0.047   2.439 -22.370  0.00  0.00    +0.163 C 
ATOM     17  O   UNL     1       4.440   2.301 -23.430  0.00  0.00    -0.245 OA
ATOM     18  C   UNL     1       1.120   2.513 -22.939  0.00  0.00    +0.098 C 
ENDROOT
TORSDOF 0
ENDMDL
