MODEL 1
REMARK VINA RESULT:    -9.634      0.000      0.000
REMARK INTER + INTRA:         -10.597
REMARK INTER:                 -10.498
REMARK INTRA:                  -0.099
REMARK UNBOUND:                -0.119
REMARK  Name = ZINC000000338130
REMARK  4 active torsions:
REMARK  status: ('A' for Active; 'I' for Inactive)
REMARK    1  A    between atoms: C_1  and  O_2
REMARK    2  A    between atoms: O_2  and  C_3
REMARK    3  A    between atoms: C_8  and  O_9
REMARK    4  A    between atoms: N_18  and  C_19
REMARK                            x       y       z     vdW  Elec       q    Type
REMARK                         _______ _______ _______ _____ _____    ______ ____
ROOT
ATOM      1  C   UNL     1      -3.042   3.787 -25.688  0.00  0.00    +0.162 A 
ATOM      2  C   UNL     1      -4.146   3.858 -25.004  0.00  0.00    +0.053 A 
ATOM      3  C   UNL     1      -4.159   3.505 -23.753  0.00  0.00    -0.030 A 
ATOM      4  C   UNL     1      -3.070   3.080 -23.186  0.00  0.00    +0.015 A 
ATOM      5  C   UNL     1      -1.965   3.009 -23.870  0.00  0.00    +0.036 A 
ATOM      6  C   UNL     1      -0.876   2.585 -23.303  0.00  0.00    -0.010 A 
ATOM      7  C   UNL     1       0.227   2.514 -23.986  0.00  0.00    +0.009 A 
ATOM      8  C   UNL     1       1.318   2.089 -23.418  0.00  0.00    +0.001 A 
ATOM      9  C   UNL     1       1.304   1.736 -22.167  0.00  0.00    +0.000 A 
ATOM     10  C   UNL     1       0.200   1.807 -21.484  0.00  0.00    +0.004 A 
ATOM     11  C   UNL     1      -0.890   2.231 -22.052  0.00  0.00    -0.034 A 
ATOM     12  C   UNL     1      -1.993   2.302 -21.368  0.00  0.00    +0.095 C 
ATOM     13  C   UNL     1      -3.083   2.727 -21.935  0.00  0.00    +0.101 C 
ATOM     14  N   UNL     1      -4.186   2.798 -21.251  0.00  0.00    +0.239 N 
ATOM     15  H   UNL     1      -4.062   2.493 -20.286  0.00  0.00    +0.204 HD
ATOM     16  C   UNL     1      -5.277   3.223 -21.820  0.00  0.00    +0.136 C 
ATOM     17  C   UNL     1      -4.200   2.444 -20.000  0.00  0.00    +0.191 C 
ATOM     18  C   UNL     1      -5.262   3.576 -23.071  0.00  0.00    +0.086 C 
ATOM     19  C   UNL     1      -1.952   3.363 -25.121  0.00  0.00    +0.167 A 
ENDROOT
BRANCH   1  21
ATOM     20  C   UNL     1      -3.607   3.392 -27.832  0.00  0.00    +0.277 C 
ATOM     21  O   UNL     1      -3.029   4.141 -26.939  0.00  0.00    -0.491 OA
ENDBRANCH   1  21
BRANCH  19  22
ATOM     22  O   UNL     1      -0.849   3.292 -25.805  0.00  0.00    -0.503 OA
ATOM     23  H   UNL     1      -0.402   2.473 -25.890  0.00  0.00    +0.292 HD
ENDBRANCH  19  22
TORSDOF 2
ENDMDL
MODEL 2
REMARK VINA RESULT:    -8.776      1.219      4.211
REMARK INTER + INTRA:          -9.664
REMARK INTER:                  -9.535
REMARK INTRA:                  -0.129
REMARK UNBOUND:                -0.119
REMARK  Name = ZINC000000338130
REMARK  4 active torsions:
REMARK  status: ('A' for Active; 'I' for Inactive)
REMARK    1  A    between atoms: C_1  and  O_2
REMARK    2  A    between atoms: O_2  and  C_3
REMARK    3  A    between atoms: C_8  and  O_9
REMARK    4  A    between atoms: N_18  and  C_19
REMARK                            x       y       z     vdW  Elec       q    Type
REMARK                         _______ _______ _______ _____ _____    ______ ____
ROOT
ATOM      1  C   UNL     1      -0.270   2.636 -22.508  0.00  0.00    +0.162 A 
ATOM      2  C   UNL     1      -1.008   2.546 -21.440  0.00  0.00    +0.053 A 
ATOM      3  C   UNL     1      -2.296   2.695 -21.526  0.00  0.00    -0.030 A 
ATOM      4  C   UNL     1      -2.848   2.934 -22.679  0.00  0.00    +0.015 A 
ATOM      5  C   UNL     1      -2.110   3.024 -23.746  0.00  0.00    +0.036 A 
ATOM      6  C   UNL     1      -2.661   3.262 -24.899  0.00  0.00    -0.010 A 
ATOM      7  C   UNL     1      -1.924   3.352 -25.966  0.00  0.00    +0.009 A 
ATOM      8  C   UNL     1      -2.476   3.591 -27.119  0.00  0.00    +0.001 A 
ATOM      9  C   UNL     1      -3.765   3.740 -27.204  0.00  0.00    +0.000 A 
ATOM     10  C   UNL     1      -4.502   3.650 -26.137  0.00  0.00    +0.004 A 
ATOM     11  C   UNL     1      -3.950   3.411 -24.984  0.00  0.00    -0.034 A 
ATOM     12  C   UNL     1      -4.687   3.322 -23.917  0.00  0.00    +0.095 C 
ATOM     13  C   UNL     1      -4.136   3.083 -22.765  0.00  0.00    +0.101 C 
ATOM     14  N   UNL     1      -4.873   2.993 -21.698  0.00  0.00    +0.239 N 
ATOM     15  H   UNL     1      -5.864   3.129 -21.901  0.00  0.00    +0.204 HD
ATOM     16  C   UNL     1      -4.321   2.754 -20.545  0.00  0.00    +0.136 C 
ATOM     17  C   UNL     1      -6.162   3.142 -21.783  0.00  0.00    +0.191 C 
ATOM     18  C   UNL     1      -3.033   2.605 -20.459  0.00  0.00    +0.086 C 
ATOM     19  C   UNL     1      -0.822   2.875 -23.660  0.00  0.00    +0.167 A 
ENDROOT
BRANCH   1  21
ATOM     20  C   UNL     1       1.513   1.479 -21.765  0.00  0.00    +0.277 C 
ATOM     21  O   UNL     1       1.018   2.487 -22.422  0.00  0.00    -0.491 OA
ENDBRANCH   1  21
BRANCH  19  22
ATOM     22  O   UNL     1      -0.084   2.964 -24.727  0.00  0.00    -0.503 OA
ATOM     23  H   UNL     1      -0.074   3.759 -25.224  0.00  0.00    +0.292 HD
ENDBRANCH  19  22
TORSDOF 2
ENDMDL
MODEL 3
REMARK VINA RESULT:    -8.526      1.314      3.958
REMARK INTER + INTRA:          -9.393
REMARK INTER:                  -9.300
REMARK INTRA:                  -0.092
REMARK UNBOUND:                -0.119
REMARK  Name = ZINC000000338130
REMARK  4 active torsions:
REMARK  status: ('A' for Active; 'I' for Inactive)
REMARK    1  A    between atoms: C_1  and  O_2
REMARK    2  A    between atoms: O_2  and  C_3
REMARK    3  A    between atoms: C_8  and  O_9
REMARK    4  A    between atoms: N_18  and  C_19
REMARK                            x       y       z     vdW  Elec       q    Type
REMARK                         _______ _______ _______ _____ _____    ______ ____
ROOT
ATOM      1  C   UNL     1      -2.720   3.797 -25.899  0.00  0.00    +0.162 A 
ATOM      2  C   UNL     1      -1.445   3.551 -25.827  0.00  0.00    +0.053 A 
ATOM      3  C   UNL     1      -0.928   3.118 -24.716  0.00  0.00    -0.030 A 
ATOM      4  C   UNL     1      -1.685   2.932 -23.676  0.00  0.00    +0.015 A 
ATOM      5  C   UNL     1      -2.961   3.178 -23.747  0.00  0.00    +0.036 A 
ATOM      6  C   UNL     1      -3.718   2.992 -22.708  0.00  0.00    -0.010 A 
ATOM      7  C   UNL     1      -4.992   3.238 -22.779  0.00  0.00    +0.009 A 
ATOM      8  C   UNL     1      -5.749   3.051 -21.738  0.00  0.00    +0.001 A 
ATOM      9  C   UNL     1      -5.232   2.619 -20.627  0.00  0.00    +0.000 A 
ATOM     10  C   UNL     1      -3.957   2.372 -20.555  0.00  0.00    +0.004 A 
ATOM     11  C   UNL     1      -3.200   2.559 -21.596  0.00  0.00    -0.034 A 
ATOM     12  C   UNL     1      -1.925   2.313 -21.525  0.00  0.00    +0.095 C 
ATOM     13  C   UNL     1      -1.169   2.499 -22.564  0.00  0.00    +0.101 C 
ATOM     14  N   UNL     1       0.106   2.253 -22.493  0.00  0.00    +0.239 N 
ATOM     15  H   UNL     1       0.383   1.920 -21.569  0.00  0.00    +0.204 HD
ATOM     16  C   UNL     1       0.863   2.440 -23.534  0.00  0.00    +0.136 C 
ATOM     17  C   UNL     1       0.623   1.820 -21.382  0.00  0.00    +0.191 C 
ATOM     18  C   UNL     1       0.346   2.872 -24.645  0.00  0.00    +0.086 C 
ATOM     19  C   UNL     1      -3.477   3.611 -24.859  0.00  0.00    +0.167 A 
ENDROOT
BRANCH   1  21
ATOM     20  C   UNL     1      -3.379   3.421 -28.019  0.00  0.00    +0.277 C 
ATOM     21  O   UNL     1      -3.237   4.230 -27.010  0.00  0.00    -0.491 OA
ENDBRANCH   1  21
BRANCH  19  22
ATOM     22  O   UNL     1      -4.752   3.857 -24.931  0.00  0.00    -0.503 OA
ATOM     23  H   UNL     1      -5.087   4.683 -24.642  0.00  0.00    +0.292 HD
ENDBRANCH  19  22
TORSDOF 2
ENDMDL
MODEL 4
REMARK VINA RESULT:    -8.275      2.037      4.242
REMARK INTER + INTRA:          -9.120
REMARK INTER:                  -8.993
REMARK INTRA:                  -0.127
REMARK UNBOUND:                -0.119
REMARK  Name = ZINC000000338130
REMARK  4 active torsions:
REMARK  status: ('A' for Active; 'I' for Inactive)
REMARK    1  A    between atoms: C_1  and  O_2
REMARK    2  A    between atoms: O_2  and  C_3
REMARK    3  A    between atoms: C_8  and  O_9
REMARK    4  A    between atoms: N_18  and  C_19
REMARK                            x       y       z     vdW  Elec       q    Type
REMARK                         _______ _______ _______ _____ _____    ______ ____
ROOT
ATOM      1  C   UNL     1       0.121   3.405 -24.405  0.00  0.00    +0.162 A 
ATOM      2  C   UNL     1      -0.459   3.434 -25.569  0.00  0.00    +0.053 A 
ATOM      3  C   UNL     1      -1.756   3.459 -25.648  0.00  0.00    -0.030 A 
ATOM      4  C   UNL     1      -2.474   3.454 -24.564  0.00  0.00    +0.015 A 
ATOM      5  C   UNL     1      -1.894   3.424 -23.400  0.00  0.00    +0.036 A 
ATOM      6  C   UNL     1      -2.611   3.419 -22.317  0.00  0.00    -0.010 A 
ATOM      7  C   UNL     1      -2.032   3.390 -21.154  0.00  0.00    +0.009 A 
ATOM      8  C   UNL     1      -2.750   3.384 -20.069  0.00  0.00    +0.001 A 
ATOM      9  C   UNL     1      -4.047   3.409 -20.149  0.00  0.00    +0.000 A 
ATOM     10  C   UNL     1      -4.627   3.439 -21.312  0.00  0.00    +0.004 A 
ATOM     11  C   UNL     1      -3.909   3.444 -22.397  0.00  0.00    -0.034 A 
ATOM     12  C   UNL     1      -4.488   3.474 -23.560  0.00  0.00    +0.095 C 
ATOM     13  C   UNL     1      -3.771   3.479 -24.643  0.00  0.00    +0.101 C 
ATOM     14  N   UNL     1      -4.351   3.508 -25.806  0.00  0.00    +0.239 N 
ATOM     15  H   UNL     1      -5.368   3.525 -25.730  0.00  0.00    +0.204 HD
ATOM     16  C   UNL     1      -3.632   3.513 -26.891  0.00  0.00    +0.136 C 
ATOM     17  C   UNL     1      -5.648   3.533 -25.886  0.00  0.00    +0.191 C 
ATOM     18  C   UNL     1      -2.335   3.489 -26.811  0.00  0.00    +0.086 C 
ATOM     19  C   UNL     1      -0.596   3.400 -23.321  0.00  0.00    +0.167 A 
ENDROOT
BRANCH   1  21
ATOM     20  C   UNL     1       2.082   2.391 -24.849  0.00  0.00    +0.277 C 
ATOM     21  O   UNL     1       1.418   3.380 -24.326  0.00  0.00    -0.491 OA
ENDBRANCH   1  21
BRANCH  19  22
ATOM     22  O   UNL     1      -0.017   3.370 -22.158  0.00  0.00    -0.503 OA
ATOM     23  H   UNL     1       0.195   4.170 -21.720  0.00  0.00    +0.292 HD
ENDBRANCH  19  22
TORSDOF 2
ENDMDL
MODEL 5
REMARK VINA RESULT:    -8.247      2.251      4.072
REMARK INTER + INTRA:          -9.089
REMARK INTER:                  -9.217
REMARK INTRA:                   0.128
REMARK UNBOUND:                -0.119
REMARK  Name = ZINC000000338130
REMARK  4 active torsions:
REMARK  status: ('A' for Active; 'I' for Inactive)
REMARK    1  A    between atoms: C_1  and  O_2
REMARK    2  A    between atoms: O_2  and  C_3
REMARK    3  A    between atoms: C_8  and  O_9
REMARK    4  A    between atoms: N_18  and  C_19
REMARK                            x       y       z     vdW  Elec       q    Type
REMARK                         _______ _______ _______ _____ _____    ______ ____
ROOT
ATOM      1  C   UNL     1      -3.228   2.942 -21.571  0.00  0.00    +0.162 A 
ATOM      2  C   UNL     1      -4.206   3.173 -22.397  0.00  0.00    +0.053 A 
ATOM      3  C   UNL     1      -3.960   3.348 -23.662  0.00  0.00    -0.030 A 
ATOM      4  C   UNL     1      -2.738   3.293 -24.100  0.00  0.00    +0.015 A 
ATOM      5  C   UNL     1      -1.760   3.062 -23.273  0.00  0.00    +0.036 A 
ATOM      6  C   UNL     1      -0.538   3.007 -23.711  0.00  0.00    -0.010 A 
ATOM      7  C   UNL     1       0.439   2.776 -22.885  0.00  0.00    +0.009 A 
ATOM      8  C   UNL     1       1.662   2.721 -23.324  0.00  0.00    +0.001 A 
ATOM      9  C   UNL     1       1.907   2.896 -24.589  0.00  0.00    +0.000 A 
ATOM     10  C   UNL     1       0.931   3.127 -25.415  0.00  0.00    +0.004 A 
ATOM     11  C   UNL     1      -0.293   3.182 -24.976  0.00  0.00    -0.034 A 
ATOM     12  C   UNL     1      -1.269   3.412 -25.802  0.00  0.00    +0.095 C 
ATOM     13  C   UNL     1      -2.491   3.468 -25.364  0.00  0.00    +0.101 C 
ATOM     14  N   UNL     1      -3.468   3.698 -26.191  0.00  0.00    +0.239 N 
ATOM     15  H   UNL     1      -3.142   3.817 -27.150  0.00  0.00    +0.204 HD
ATOM     16  C   UNL     1      -4.691   3.753 -25.752  0.00  0.00    +0.136 C 
ATOM     17  C   UNL     1      -3.223   3.873 -27.455  0.00  0.00    +0.191 C 
ATOM     18  C   UNL     1      -4.937   3.578 -24.487  0.00  0.00    +0.086 C 
ATOM     19  C   UNL     1      -2.006   2.887 -22.009  0.00  0.00    +0.167 A 
ENDROOT
BRANCH   1  21
ATOM     20  C   UNL     1      -3.337   3.758 -19.474  0.00  0.00    +0.277 C 
ATOM     21  O   UNL     1      -3.475   2.767 -20.306  0.00  0.00    -0.491 OA
ENDBRANCH   1  21
BRANCH  19  22
ATOM     22  O   UNL     1      -1.029   2.657 -21.183  0.00  0.00    -0.503 OA
ATOM     23  H   UNL     1      -1.187   2.178 -20.392  0.00  0.00    +0.292 HD
ENDBRANCH  19  22
TORSDOF 2
ENDMDL
MODEL 6
REMARK VINA RESULT:    -7.792      2.836      5.849
REMARK INTER + INTRA:          -8.594
REMARK INTER:                  -8.476
REMARK INTRA:                  -0.119
REMARK UNBOUND:                -0.119
REMARK  Name = ZINC000000338130
REMARK  4 active torsions:
REMARK  status: ('A' for Active; 'I' for Inactive)
REMARK    1  A    between atoms: C_1  and  O_2
REMARK    2  A    between atoms: O_2  and  C_3
REMARK    3  A    between atoms: C_8  and  O_9
REMARK    4  A    between atoms: N_18  and  C_19
REMARK                            x       y       z     vdW  Elec       q    Type
REMARK                         _______ _______ _______ _____ _____    ______ ____
ROOT
ATOM      1  C   UNL     1       1.780   1.450 -21.642  0.00  0.00    +0.162 A 
ATOM      2  C   UNL     1       2.268   1.709 -22.819  0.00  0.00    +0.053 A 
ATOM      3  C   UNL     1       1.511   2.239 -23.734  0.00  0.00    -0.030 A 
ATOM      4  C   UNL     1       0.268   2.511 -23.472  0.00  0.00    +0.015 A 
ATOM      5  C   UNL     1      -0.220   2.252 -22.294  0.00  0.00    +0.036 A 
ATOM      6  C   UNL     1      -1.463   2.524 -22.032  0.00  0.00    -0.010 A 
ATOM      7  C   UNL     1      -1.951   2.266 -20.855  0.00  0.00    +0.009 A 
ATOM      8  C   UNL     1      -3.196   2.538 -20.593  0.00  0.00    +0.001 A 
ATOM      9  C   UNL     1      -3.952   3.068 -21.508  0.00  0.00    +0.000 A 
ATOM     10  C   UNL     1      -3.464   3.326 -22.685  0.00  0.00    +0.004 A 
ATOM     11  C   UNL     1      -2.219   3.054 -22.947  0.00  0.00    -0.034 A 
ATOM     12  C   UNL     1      -1.732   3.313 -24.124  0.00  0.00    +0.095 C 
ATOM     13  C   UNL     1      -0.489   3.041 -24.386  0.00  0.00    +0.101 C 
ATOM     14  N   UNL     1      -0.001   3.300 -25.563  0.00  0.00    +0.239 N 
ATOM     15  H   UNL     1      -0.695   3.713 -26.186  0.00  0.00    +0.204 HD
ATOM     16  C   UNL     1       1.243   3.027 -25.825  0.00  0.00    +0.136 C 
ATOM     17  C   UNL     1      -0.757   3.830 -26.479  0.00  0.00    +0.191 C 
ATOM     18  C   UNL     1       1.999   2.497 -24.910  0.00  0.00    +0.086 C 
ATOM     19  C   UNL     1       0.537   1.722 -21.380  0.00  0.00    +0.167 A 
ENDROOT
BRANCH   1  21
ATOM     20  C   UNL     1       3.698   0.430 -21.049  0.00  0.00    +0.277 C 
ATOM     21  O   UNL     1       2.537   0.920 -20.727  0.00  0.00    -0.491 OA
ENDBRANCH   1  21
BRANCH  19  22
ATOM     22  O   UNL     1       0.049   1.464 -20.202  0.00  0.00    -0.503 OA
ATOM     23  H   UNL     1       0.608   1.135 -19.526  0.00  0.00    +0.292 HD
ENDBRANCH  19  22
TORSDOF 2
ENDMDL
MODEL 7
REMARK VINA RESULT:    -7.661      2.320      5.164
REMARK INTER + INTRA:          -8.451
REMARK INTER:                  -8.333
REMARK INTRA:                  -0.119
REMARK UNBOUND:                -0.119
REMARK  Name = ZINC000000338130
REMARK  4 active torsions:
REMARK  status: ('A' for Active; 'I' for Inactive)
REMARK    1  A    between atoms: C_1  and  O_2
REMARK    2  A    between atoms: O_2  and  C_3
REMARK    3  A    between atoms: C_8  and  O_9
REMARK    4  A    between atoms: N_18  and  C_19
REMARK                            x       y       z     vdW  Elec       q    Type
REMARK                         _______ _______ _______ _____ _____    ______ ____
ROOT
ATOM      1  C   UNL     1       0.621   2.252 -22.411  0.00  0.00    +0.162 A 
ATOM      2  C   UNL     1       0.806   2.591 -23.653  0.00  0.00    +0.053 A 
ATOM      3  C   UNL     1      -0.206   2.948 -24.387  0.00  0.00    -0.030 A 
ATOM      4  C   UNL     1      -1.403   2.965 -23.880  0.00  0.00    +0.015 A 
ATOM      5  C   UNL     1      -1.588   2.625 -22.638  0.00  0.00    +0.036 A 
ATOM      6  C   UNL     1      -2.784   2.642 -22.131  0.00  0.00    -0.010 A 
ATOM      7  C   UNL     1      -2.969   2.303 -20.890  0.00  0.00    +0.009 A 
ATOM      8  C   UNL     1      -4.167   2.320 -20.383  0.00  0.00    +0.001 A 
ATOM      9  C   UNL     1      -5.178   2.676 -21.117  0.00  0.00    +0.000 A 
ATOM     10  C   UNL     1      -4.994   3.016 -22.358  0.00  0.00    +0.004 A 
ATOM     11  C   UNL     1      -3.796   2.999 -22.865  0.00  0.00    -0.034 A 
ATOM     12  C   UNL     1      -3.611   3.338 -24.107  0.00  0.00    +0.095 C 
ATOM     13  C   UNL     1      -2.415   3.321 -24.613  0.00  0.00    +0.101 C 
ATOM     14  N   UNL     1      -2.230   3.660 -25.855  0.00  0.00    +0.239 N 
ATOM     15  H   UNL     1      -3.102   3.918 -26.318  0.00  0.00    +0.204 HD
ATOM     16  C   UNL     1      -1.032   3.643 -26.362  0.00  0.00    +0.136 C 
ATOM     17  C   UNL     1      -3.242   4.017 -26.589  0.00  0.00    +0.191 C 
ATOM     18  C   UNL     1      -0.021   3.287 -25.627  0.00  0.00    +0.086 C 
ATOM     19  C   UNL     1      -0.576   2.269 -21.904  0.00  0.00    +0.167 A 
ENDROOT
BRANCH   1  21
ATOM     20  C   UNL     1       2.846   2.083 -22.108  0.00  0.00    +0.277 C 
ATOM     21  O   UNL     1       1.633   1.896 -21.677  0.00  0.00    -0.491 OA
ENDBRANCH   1  21
BRANCH  19  22
ATOM     22  O   UNL     1      -0.760   1.929 -20.663  0.00  0.00    -0.503 OA
ATOM     23  H   UNL     1      -1.208   1.133 -20.456  0.00  0.00    +0.292 HD
ENDBRANCH  19  22
TORSDOF 2
ENDMDL
MODEL 8
REMARK VINA RESULT:    -7.481      2.376      3.950
REMARK INTER + INTRA:          -8.256
REMARK INTER:                  -8.126
REMARK INTRA:                  -0.130
REMARK UNBOUND:                -0.119
REMARK  Name = ZINC000000338130
REMARK  4 active torsions:
REMARK  status: ('A' for Active; 'I' for Inactive)
REMARK    1  A    between atoms: C_1  and  O_2
REMARK    2  A    between atoms: O_2  and  C_3
REMARK    3  A    between atoms: C_8  and  O_9
REMARK    4  A    between atoms: N_18  and  C_19
REMARK                            x       y       z     vdW  Elec       q    Type
REMARK                         _______ _______ _______ _____ _____    ______ ____
ROOT
ATOM      1  C   UNL     1      -4.998   3.186 -22.149  0.00  0.00    +0.162 A 
ATOM      2  C   UNL     1      -5.245   3.586 -23.362  0.00  0.00    +0.053 A 
ATOM      3  C   UNL     1      -4.292   3.603 -24.246  0.00  0.00    -0.030 A 
ATOM      4  C   UNL     1      -3.094   3.221 -23.919  0.00  0.00    +0.015 A 
ATOM      5  C   UNL     1      -2.848   2.821 -22.706  0.00  0.00    +0.036 A 
ATOM      6  C   UNL     1      -1.650   2.439 -22.379  0.00  0.00    -0.010 A 
ATOM      7  C   UNL     1      -1.403   2.039 -21.166  0.00  0.00    +0.009 A 
ATOM      8  C   UNL     1      -0.204   1.657 -20.839  0.00  0.00    +0.001 A 
ATOM      9  C   UNL     1       0.748   1.674 -21.724  0.00  0.00    +0.000 A 
ATOM     10  C   UNL     1       0.502   2.074 -22.936  0.00  0.00    +0.004 A 
ATOM     11  C   UNL     1      -0.698   2.456 -23.264  0.00  0.00    -0.034 A 
ATOM     12  C   UNL     1      -0.944   2.856 -24.476  0.00  0.00    +0.095 C 
ATOM     13  C   UNL     1      -2.142   3.238 -24.803  0.00  0.00    +0.101 C 
ATOM     14  N   UNL     1      -2.388   3.637 -26.016  0.00  0.00    +0.239 N 
ATOM     15  H   UNL     1      -1.559   3.603 -26.609  0.00  0.00    +0.204 HD
ATOM     16  C   UNL     1      -3.587   4.019 -26.343  0.00  0.00    +0.136 C 
ATOM     17  C   UNL     1      -1.436   3.655 -26.901  0.00  0.00    +0.191 C 
ATOM     18  C   UNL     1      -4.539   4.002 -25.458  0.00  0.00    +0.086 C 
ATOM     19  C   UNL     1      -3.800   2.804 -21.821  0.00  0.00    +0.167 A 
ENDROOT
BRANCH   1  21
ATOM     20  C   UNL     1      -7.052   2.521 -21.508  0.00  0.00    +0.277 C 
ATOM     21  O   UNL     1      -5.951   3.169 -21.264  0.00  0.00    -0.491 OA
ENDBRANCH   1  21
BRANCH  19  22
ATOM     22  O   UNL     1      -3.554   2.404 -20.609  0.00  0.00    -0.503 OA
ATOM     23  H   UNL     1      -4.238   2.025 -20.092  0.00  0.00    +0.292 HD
ENDBRANCH  19  22
TORSDOF 2
ENDMDL
MODEL 9
REMARK VINA RESULT:    -7.055      2.409      4.135
REMARK INTER + INTRA:          -7.793
REMARK INTER:                  -7.674
REMARK INTRA:                  -0.119
REMARK UNBOUND:                -0.119
REMARK  Name = ZINC000000338130
REMARK  4 active torsions:
REMARK  status: ('A' for Active; 'I' for Inactive)
REMARK    1  A    between atoms: C_1  and  O_2
REMARK    2  A    between atoms: O_2  and  C_3
REMARK    3  A    between atoms: C_8  and  O_9
REMARK    4  A    between atoms: N_18  and  C_19
REMARK                            x       y       z     vdW  Elec       q    Type
REMARK                         _______ _______ _______ _____ _____    ______ ____
ROOT
ATOM      1  C   UNL     1      -3.392   2.760 -22.367  0.00  0.00    +0.162 A 
ATOM      2  C   UNL     1      -3.403   3.183 -23.597  0.00  0.00    +0.053 A 
ATOM      3  C   UNL     1      -2.290   3.264 -24.265  0.00  0.00    -0.030 A 
ATOM      4  C   UNL     1      -1.169   2.924 -23.705  0.00  0.00    +0.015 A 
ATOM      5  C   UNL     1      -1.158   2.502 -22.474  0.00  0.00    +0.036 A 
ATOM      6  C   UNL     1      -0.036   2.161 -21.914  0.00  0.00    -0.010 A 
ATOM      7  C   UNL     1      -0.026   1.739 -20.684  0.00  0.00    +0.009 A 
ATOM      8  C   UNL     1       1.097   1.399 -20.123  0.00  0.00    +0.001 A 
ATOM      9  C   UNL     1       2.209   1.481 -20.792  0.00  0.00    +0.000 A 
ATOM     10  C   UNL     1       2.199   1.903 -22.021  0.00  0.00    +0.004 A 
ATOM     11  C   UNL     1       1.075   2.244 -22.582  0.00  0.00    -0.034 A 
ATOM     12  C   UNL     1       1.065   2.666 -23.812  0.00  0.00    +0.095 C 
ATOM     13  C   UNL     1      -0.056   3.006 -24.373  0.00  0.00    +0.101 C 
ATOM     14  N   UNL     1      -0.066   3.428 -25.602  0.00  0.00    +0.239 N 
ATOM     15  H   UNL     1       0.868   3.445 -26.012  0.00  0.00    +0.204 HD
ATOM     16  C   UNL     1      -1.190   3.768 -26.163  0.00  0.00    +0.136 C 
ATOM     17  C   UNL     1       1.045   3.510 -26.271  0.00  0.00    +0.191 C 
ATOM     18  C   UNL     1      -2.301   3.686 -25.494  0.00  0.00    +0.086 C 
ATOM     19  C   UNL     1      -2.270   2.420 -21.806  0.00  0.00    +0.167 A 
ENDROOT
BRANCH   1  21
ATOM     20  C   UNL     1      -5.579   3.255 -22.152  0.00  0.00    +0.277 C 
ATOM     21  O   UNL     1      -4.504   2.678 -21.699  0.00  0.00    -0.491 OA
ENDBRANCH   1  21
BRANCH  19  22
ATOM     22  O   UNL     1      -2.260   1.998 -20.577  0.00  0.00    -0.503 OA
ATOM     23  H   UNL     1      -2.966   2.216 -20.000  0.00  0.00    +0.292 HD
ENDBRANCH  19  22
TORSDOF 2
ENDMDL
