MODEL 1
REMARK VINA RESULT:   -10.545      0.000      0.000
REMARK INTER + INTRA:         -10.853
REMARK INTER:                 -10.853
REMARK INTRA:                   0.000
REMARK UNBOUND:                 0.000
REMARK  Name = C=C1C(=O)O[C@@H]2/C=C(\C)[C@H](O)C/C=C(\C)CC[C@@H]12                 ZINC000100392377
REMARK  3 active torsions:
REMARK  status: ('A' for Active; 'I' for Inactive)
REMARK    1  A    between atoms: C_8  and  C_9
REMARK    2  A    between atoms: C_10  and  O_11
REMARK    3  A    between atoms: C_14  and  C_15
REMARK                            x       y       z     vdW  Elec       q    Type
REMARK                         _______ _______ _______ _____ _____    ______ ____
ROOT
ATOM      1  C   UNL     1       0.632   1.531 -21.215  0.00  0.00    +0.020 C 
ATOM      2  C   UNL     1      -0.091   1.978 -22.201  0.00  0.00    +0.036 C 
ATOM      3  C   UNL     1       0.315   2.159 -23.426  0.00  0.00    +0.336 C 
ATOM      4  O   UNL     1      -0.686   2.615 -24.123  0.00  0.00    -0.453 OA
ATOM      5  C   UNL     1      -1.714   2.715 -23.326  0.00  0.00    +0.207 C 
ATOM      6  C   UNL     1      -2.799   3.069 -23.504  0.00  0.00    +0.019 C 
ATOM      7  C   UNL     1      -3.213   3.469 -24.662  0.00  0.00    -0.045 C 
ATOM      8  C   UNL     1      -4.516   3.882 -24.828  0.00  0.00    +0.144 C 
ATOM      9  C   UNL     1      -5.475   3.903 -23.785  0.00  0.00    +0.063 C 
ATOM     10  C   UNL     1      -5.221   3.520 -22.506  0.00  0.00    -0.025 C 
ATOM     11  C   UNL     1      -4.093   3.146 -22.294  0.00  0.00    -0.076 C 
ATOM     12  C   UNL     1      -3.595   2.728 -21.163  0.00  0.00    +0.031 C 
ATOM     13  C   UNL     1      -2.254   2.323 -21.077  0.00  0.00    +0.016 C 
ATOM     14  C   UNL     1      -3.475   3.172 -23.133  0.00  0.00    +0.039 C 
ATOM     15  C   UNL     1      -2.391   3.482 -25.684  0.00  0.00    +0.041 C 
ATOM     16  O   UNL     1       1.515   1.926 -23.880  0.00  0.00    -0.245 OA
ATOM     17  C   UNL     1      -1.347   2.323 -22.142  0.00  0.00    +0.070 C 
ENDROOT
BRANCH   8  18
ATOM     18  O   UNL     1      -4.890   4.279 -26.020  0.00  0.00    -0.387 OA
ATOM     19  H   UNL     1      -5.177   3.512 -26.541  0.00  0.00    +0.210 HD
ENDBRANCH   8  18
TORSDOF 1
ENDMDL
MODEL 2
REMARK VINA RESULT:   -10.412      1.653      2.764
REMARK INTER + INTRA:         -10.716
REMARK INTER:                 -10.716
REMARK INTRA:                   0.000
REMARK UNBOUND:                 0.000
REMARK  Name = C=C1C(=O)O[C@@H]2/C=C(\C)[C@H](O)C/C=C(\C)CC[C@@H]12                 ZINC000100392377
REMARK  3 active torsions:
REMARK  status: ('A' for Active; 'I' for Inactive)
REMARK    1  A    between atoms: C_8  and  C_9
REMARK    2  A    between atoms: C_10  and  O_11
REMARK    3  A    between atoms: C_14  and  C_15
REMARK                            x       y       z     vdW  Elec       q    Type
REMARK                         _______ _______ _______ _____ _____    ______ ____
ROOT
ATOM      1  C   UNL     1       1.459   2.109 -22.942  0.00  0.00    +0.020 C 
ATOM      2  C   UNL     1       0.227   2.222 -22.537  0.00  0.00    +0.036 C 
ATOM      3  C   UNL     1      -0.231   1.859 -21.372  0.00  0.00    +0.336 C 
ATOM      4  O   UNL     1      -1.505   2.128 -21.334  0.00  0.00    -0.453 OA
ATOM      5  C   UNL     1      -1.834   2.658 -22.480  0.00  0.00    +0.207 C 
ATOM      6  C   UNL     1      -2.841   3.046 -22.890  0.00  0.00    +0.019 C 
ATOM      7  C   UNL     1      -3.931   3.011 -22.194  0.00  0.00    -0.045 C 
ATOM      8  C   UNL     1      -5.109   3.485 -22.725  0.00  0.00    +0.144 C 
ATOM      9  C   UNL     1      -5.223   4.030 -24.029  0.00  0.00    +0.063 C 
ATOM     10  C   UNL     1      -4.188   4.147 -24.901  0.00  0.00    -0.025 C 
ATOM     11  C   UNL     1      -3.124   3.748 -24.494  0.00  0.00    -0.076 C 
ATOM     12  C   UNL     1      -1.982   3.746 -25.127  0.00  0.00    +0.031 C 
ATOM     13  C   UNL     1      -0.824   3.244 -24.514  0.00  0.00    +0.016 C 
ATOM     14  C   UNL     1      -3.157   3.369 -23.524  0.00  0.00    +0.039 C 
ATOM     15  C   UNL     1      -3.916   2.523 -20.977  0.00  0.00    +0.041 C 
ATOM     16  O   UNL     1       0.462   1.320 -20.407  0.00  0.00    -0.245 OA
ATOM     17  C   UNL     1      -0.767   2.716 -23.220  0.00  0.00    +0.070 C 
ENDROOT
BRANCH   8  18
ATOM     18  O   UNL     1      -6.188   3.429 -21.982  0.00  0.00    -0.387 OA
ATOM     19  H   UNL     1      -6.480   4.329 -21.769  0.00  0.00    +0.210 HD
ENDBRANCH   8  18
TORSDOF 1
ENDMDL
MODEL 3
REMARK VINA RESULT:    -9.491      1.171      4.589
REMARK INTER + INTRA:          -9.768
REMARK INTER:                  -9.768
REMARK INTRA:                   0.000
REMARK UNBOUND:                 0.000
REMARK  Name = C=C1C(=O)O[C@@H]2/C=C(\C)[C@H](O)C/C=C(\C)CC[C@@H]12                 ZINC000100392377
REMARK  3 active torsions:
REMARK  status: ('A' for Active; 'I' for Inactive)
REMARK    1  A    between atoms: C_8  and  C_9
REMARK    2  A    between atoms: C_10  and  O_11
REMARK    3  A    between atoms: C_14  and  C_15
REMARK                            x       y       z     vdW  Elec       q    Type
REMARK                         _______ _______ _______ _____ _____    ______ ____
ROOT
ATOM      1  C   UNL     1      -5.194   3.753 -23.257  0.00  0.00    +0.020 C 
ATOM      2  C   UNL     1      -3.962   3.714 -23.674  0.00  0.00    +0.036 C 
ATOM      3  C   UNL     1      -3.510   4.244 -24.776  0.00  0.00    +0.336 C 
ATOM      4  O   UNL     1      -2.233   3.999 -24.851  0.00  0.00    -0.453 OA
ATOM      5  C   UNL     1      -1.895   3.316 -23.792  0.00  0.00    +0.207 C 
ATOM      6  C   UNL     1      -0.883   2.886 -23.439  0.00  0.00    +0.019 C 
ATOM      7  C   UNL     1       0.205   3.033 -24.124  0.00  0.00    -0.045 C 
ATOM      8  C   UNL     1       1.390   2.503 -23.664  0.00  0.00    +0.144 C 
ATOM      9  C   UNL     1       1.512   1.780 -22.451  0.00  0.00    +0.063 C 
ATOM     10  C   UNL     1       0.480   1.528 -21.605  0.00  0.00    -0.025 C 
ATOM     11  C   UNL     1      -0.590   1.968 -21.951  0.00  0.00    -0.076 C 
ATOM     12  C   UNL     1      -1.730   1.866 -21.325  0.00  0.00    +0.031 C 
ATOM     13  C   UNL     1      -2.895   2.436 -21.861  0.00  0.00    +0.016 C 
ATOM     14  C   UNL     1      -0.562   2.481 -22.858  0.00  0.00    +0.039 C 
ATOM     15  C   UNL     1       0.182   3.688 -25.259  0.00  0.00    +0.041 C 
ATOM     16  O   UNL     1      -4.210   4.905 -25.655  0.00  0.00    -0.245 OA
ATOM     17  C   UNL     1      -2.960   3.141 -23.067  0.00  0.00    +0.070 C 
ENDROOT
BRANCH   8  18
ATOM     18  O   UNL     1       2.467   2.677 -24.392  0.00  0.00    -0.387 OA
ATOM     19  H   UNL     1       2.903   3.503 -24.131  0.00  0.00    +0.210 HD
ENDBRANCH   8  18
TORSDOF 1
ENDMDL
MODEL 4
REMARK VINA RESULT:    -8.965      2.421      4.186
REMARK INTER + INTRA:          -9.227
REMARK INTER:                  -9.227
REMARK INTRA:                   0.000
REMARK UNBOUND:                 0.000
REMARK  Name = C=C1C(=O)O[C@@H]2/C=C(\C)[C@H](O)C/C=C(\C)CC[C@@H]12                 ZINC000100392377
REMARK  3 active torsions:
REMARK  status: ('A' for Active; 'I' for Inactive)
REMARK    1  A    between atoms: C_8  and  C_9
REMARK    2  A    between atoms: C_10  and  O_11
REMARK    3  A    between atoms: C_14  and  C_15
REMARK                            x       y       z     vdW  Elec       q    Type
REMARK                         _______ _______ _______ _____ _____    ______ ____
ROOT
ATOM      1  C   UNL     1       4.708   2.146 -22.446  0.00  0.00    +0.020 C 
ATOM      2  C   UNL     1       3.432   1.973 -22.256  0.00  0.00    +0.036 C 
ATOM      3  C   UNL     1       2.882   0.980 -21.614  0.00  0.00    +0.336 C 
ATOM      4  O   UNL     1       1.591   1.149 -21.632  0.00  0.00    -0.453 OA
ATOM      5  C   UNL     1       1.343   2.250 -22.287  0.00  0.00    +0.207 C 
ATOM      6  C   UNL     1       0.354   2.787 -22.549  0.00  0.00    +0.019 C 
ATOM      7  C   UNL     1      -0.799   2.323 -22.191  0.00  0.00    -0.045 C 
ATOM      8  C   UNL     1      -1.952   2.998 -22.526  0.00  0.00    +0.144 C 
ATOM      9  C   UNL     1      -1.971   4.208 -23.263  0.00  0.00    +0.063 C 
ATOM     10  C   UNL     1      -0.859   4.841 -23.722  0.00  0.00    -0.025 C 
ATOM     11  C   UNL     1       0.187   4.299 -23.461  0.00  0.00    -0.076 C 
ATOM     12  C   UNL     1       1.388   4.695 -23.781  0.00  0.00    +0.031 C 
ATOM     13  C   UNL     1       2.515   3.949 -23.401  0.00  0.00    +0.016 C 
ATOM     14  C   UNL     1       0.082   3.417 -22.916  0.00  0.00    +0.039 C 
ATOM     15  C   UNL     1      -0.874   1.208 -21.506  0.00  0.00    +0.041 C 
ATOM     16  O   UNL     1       3.512  -0.013 -21.050  0.00  0.00    -0.245 OA
ATOM     17  C   UNL     1       2.476   2.757 -22.671  0.00  0.00    +0.070 C 
ENDROOT
BRANCH   8  18
ATOM     18  O   UNL     1      -3.098   2.490 -22.141  0.00  0.00    -0.387 OA
ATOM     19  H   UNL     1      -3.553   3.122 -21.562  0.00  0.00    +0.210 HD
ENDBRANCH   8  18
TORSDOF 1
ENDMDL
MODEL 5
REMARK VINA RESULT:    -8.435      1.606      2.546
REMARK INTER + INTRA:          -8.681
REMARK INTER:                  -8.681
REMARK INTRA:                   0.000
REMARK UNBOUND:                 0.000
REMARK  Name = C=C1C(=O)O[C@@H]2/C=C(\C)[C@H](O)C/C=C(\C)CC[C@@H]12                 ZINC000100392377
REMARK  3 active torsions:
REMARK  status: ('A' for Active; 'I' for Inactive)
REMARK    1  A    between atoms: C_8  and  C_9
REMARK    2  A    between atoms: C_10  and  O_11
REMARK    3  A    between atoms: C_14  and  C_15
REMARK                            x       y       z     vdW  Elec       q    Type
REMARK                         _______ _______ _______ _____ _____    ______ ____
ROOT
ATOM      1  C   UNL     1       3.452   1.166 -22.020  0.00  0.00    +0.020 C 
ATOM      2  C   UNL     1       2.562   1.732 -22.783  0.00  0.00    +0.036 C 
ATOM      3  C   UNL     1       2.781   2.255 -23.956  0.00  0.00    +0.336 C 
ATOM      4  O   UNL     1       1.654   2.723 -24.410  0.00  0.00    -0.453 OA
ATOM      5  C   UNL     1       0.735   2.488 -23.514  0.00  0.00    +0.207 C 
ATOM      6  C   UNL     1      -0.395   2.722 -23.487  0.00  0.00    +0.019 C 
ATOM      7  C   UNL     1      -0.999   3.328 -24.458  0.00  0.00    -0.045 C 
ATOM      8  C   UNL     1      -2.349   3.586 -24.381  0.00  0.00    +0.144 C 
ATOM      9  C   UNL     1      -3.159   3.225 -23.276  0.00  0.00    +0.063 C 
ATOM     10  C   UNL     1      -2.700   2.585 -22.168  0.00  0.00    -0.025 C 
ATOM     11  C   UNL     1      -1.520   2.330 -22.173  0.00  0.00    -0.076 C 
ATOM     12  C   UNL     1      -0.835   1.726 -21.242  0.00  0.00    +0.031 C 
ATOM     13  C   UNL     1       0.542   1.500 -21.396  0.00  0.00    +0.016 C 
ATOM     14  C   UNL     1      -1.024   2.640 -23.035  0.00  0.00    +0.039 C 
ATOM     15  C   UNL     1      -0.325   3.697 -25.520  0.00  0.00    +0.041 C 
ATOM     16  O   UNL     1       3.929   2.304 -24.573  0.00  0.00    -0.245 OA
ATOM     17  C   UNL     1       1.295   1.878 -22.512  0.00  0.00    +0.070 C 
ENDROOT
BRANCH   8  18
ATOM     18  O   UNL     1      -2.918   4.201 -25.390  0.00  0.00    -0.387 OA
ATOM     19  H   UNL     1      -3.781   3.797 -25.570  0.00  0.00    +0.210 HD
ENDBRANCH   8  18
TORSDOF 1
ENDMDL
MODEL 6
REMARK VINA RESULT:    -8.311      2.349      3.944
REMARK INTER + INTRA:          -8.554
REMARK INTER:                  -8.554
REMARK INTRA:                   0.000
REMARK UNBOUND:                 0.000
REMARK  Name = C=C1C(=O)O[C@@H]2/C=C(\C)[C@H](O)C/C=C(\C)CC[C@@H]12                 ZINC000100392377
REMARK  3 active torsions:
REMARK  status: ('A' for Active; 'I' for Inactive)
REMARK    1  A    between atoms: C_8  and  C_9
REMARK    2  A    between atoms: C_10  and  O_11
REMARK    3  A    between atoms: C_14  and  C_15
REMARK                            x       y       z     vdW  Elec       q    Type
REMARK                         _______ _______ _______ _____ _____    ______ ____
ROOT
ATOM      1  C   UNL     1       4.789   1.919 -21.420  0.00  0.00    +0.020 C 
ATOM      2  C   UNL     1       3.950   2.326 -22.328  0.00  0.00    +0.036 C 
ATOM      3  C   UNL     1       4.261   2.936 -23.438  0.00  0.00    +0.336 C 
ATOM      4  O   UNL     1       3.159   3.184 -24.087  0.00  0.00    -0.453 OA
ATOM      5  C   UNL     1       2.166   2.728 -23.376  0.00  0.00    +0.207 C 
ATOM      6  C   UNL     1       1.025   2.725 -23.553  0.00  0.00    +0.019 C 
ATOM      7  C   UNL     1       0.490   3.238 -24.614  0.00  0.00    -0.045 C 
ATOM      8  C   UNL     1      -0.877   3.213 -24.783  0.00  0.00    +0.144 C 
ATOM      9  C   UNL     1      -1.776   2.646 -23.847  0.00  0.00    +0.063 C 
ATOM     10  C   UNL     1      -1.397   2.064 -22.679  0.00  0.00    -0.025 C 
ATOM     11  C   UNL     1      -0.208   2.053 -22.470  0.00  0.00    -0.076 C 
ATOM     12  C   UNL     1       0.411   1.560 -21.433  0.00  0.00    +0.031 C 
ATOM     13  C   UNL     1       1.810   1.626 -21.336  0.00  0.00    +0.016 C 
ATOM     14  C   UNL     1       0.357   2.497 -23.225  0.00  0.00    +0.039 C 
ATOM     15  C   UNL     1       1.249   3.784 -25.532  0.00  0.00    +0.041 C 
ATOM     16  O   UNL     1       5.463   3.245 -23.835  0.00  0.00    -0.245 OA
ATOM     17  C   UNL     1       2.653   2.199 -22.292  0.00  0.00    +0.070 C 
ENDROOT
BRANCH   8  18
ATOM     18  O   UNL     1      -1.373   3.745 -25.874  0.00  0.00    -0.387 OA
ATOM     19  H   UNL     1      -2.087   3.182 -26.212  0.00  0.00    +0.210 HD
ENDBRANCH   8  18
TORSDOF 1
ENDMDL
MODEL 7
REMARK VINA RESULT:    -8.279      2.229      4.684
REMARK INTER + INTRA:          -8.521
REMARK INTER:                  -8.521
REMARK INTRA:                   0.000
REMARK UNBOUND:                 0.000
REMARK  Name = C=C1C(=O)O[C@@H]2/C=C(\C)[C@H](O)C/C=C(\C)CC[C@@H]12                 ZINC000100392377
REMARK  3 active torsions:
REMARK  status: ('A' for Active; 'I' for Inactive)
REMARK    1  A    between atoms: C_8  and  C_9
REMARK    2  A    between atoms: C_10  and  O_11
REMARK    3  A    between atoms: C_14  and  C_15
REMARK                            x       y       z     vdW  Elec       q    Type
REMARK                         _______ _______ _______ _____ _____    ______ ____
ROOT
ATOM      1  C   UNL     1      -4.069   1.567 -20.664  0.00  0.00    +0.020 C 
ATOM      2  C   UNL     1      -3.312   2.402 -21.314  0.00  0.00    +0.036 C 
ATOM      3  C   UNL     1      -3.690   3.542 -21.822  0.00  0.00    +0.336 C 
ATOM      4  O   UNL     1      -2.659   4.094 -22.394  0.00  0.00    -0.453 OA
ATOM      5  C   UNL     1      -1.641   3.293 -22.239  0.00  0.00    +0.207 C 
ATOM      6  C   UNL     1      -0.539   3.370 -22.576  0.00  0.00    +0.019 C 
ATOM      7  C   UNL     1      -0.089   4.386 -23.240  0.00  0.00    -0.045 C 
ATOM      8  C   UNL     1       1.234   4.434 -23.621  0.00  0.00    +0.144 C 
ATOM      9  C   UNL     1       2.176   3.416 -23.330  0.00  0.00    +0.063 C 
ATOM     10  C   UNL     1       1.885   2.280 -22.644  0.00  0.00    -0.025 C 
ATOM     11  C   UNL     1       0.738   2.176 -22.281  0.00  0.00    -0.076 C 
ATOM     12  C   UNL     1       0.204   1.192 -21.611  0.00  0.00    +0.031 C 
ATOM     13  C   UNL     1      -1.155   1.218 -21.260  0.00  0.00    +0.016 C 
ATOM     14  C   UNL     1       0.135   2.982 -22.550  0.00  0.00    +0.039 C 
ATOM     15  C   UNL     1      -0.892   5.373 -23.552  0.00  0.00    +0.041 C 
ATOM     16  O   UNL     1      -4.891   4.046 -21.769  0.00  0.00    -0.245 OA
ATOM     17  C   UNL     1      -2.043   2.251 -21.574  0.00  0.00    +0.070 C 
ENDROOT
BRANCH   8  18
ATOM     18  O   UNL     1       1.644   5.483 -24.292  0.00  0.00    -0.387 OA
ATOM     19  H   UNL     1       1.049   5.640 -25.042  0.00  0.00    +0.210 HD
ENDBRANCH   8  18
TORSDOF 1
ENDMDL
MODEL 8
REMARK VINA RESULT:    -7.930      2.340      5.991
REMARK INTER + INTRA:          -8.161
REMARK INTER:                  -8.161
REMARK INTRA:                   0.000
REMARK UNBOUND:                 0.000
REMARK  Name = C=C1C(=O)O[C@@H]2/C=C(\C)[C@H](O)C/C=C(\C)CC[C@@H]12                 ZINC000100392377
REMARK  3 active torsions:
REMARK  status: ('A' for Active; 'I' for Inactive)
REMARK    1  A    between atoms: C_8  and  C_9
REMARK    2  A    between atoms: C_10  and  O_11
REMARK    3  A    between atoms: C_14  and  C_15
REMARK                            x       y       z     vdW  Elec       q    Type
REMARK                         _______ _______ _______ _____ _____    ______ ____
ROOT
ATOM      1  C   UNL     1      -2.249   1.896 -21.526  0.00  0.00    +0.020 C 
ATOM      2  C   UNL     1      -1.167   2.032 -22.235  0.00  0.00    +0.036 C 
ATOM      3  C   UNL     1      -1.115   2.332 -23.503  0.00  0.00    +0.336 C 
ATOM      4  O   UNL     1       0.137   2.378 -23.859  0.00  0.00    -0.453 OA
ATOM      5  C   UNL     1       0.861   2.105 -22.808  0.00  0.00    +0.207 C 
ATOM      6  C   UNL     1       2.003   2.033 -22.654  0.00  0.00    +0.019 C 
ATOM      7  C   UNL     1       2.844   2.236 -23.616  0.00  0.00    -0.045 C 
ATOM      8  C   UNL     1       4.198   2.139 -23.385  0.00  0.00    +0.144 C 
ATOM      9  C   UNL     1       4.762   1.821 -22.124  0.00  0.00    +0.063 C 
ATOM     10  C   UNL     1       4.036   1.577 -21.002  0.00  0.00    -0.025 C 
ATOM     11  C   UNL     1       2.838   1.646 -21.138  0.00  0.00    -0.076 C 
ATOM     12  C   UNL     1       1.924   1.457 -20.227  0.00  0.00    +0.031 C 
ATOM     13  C   UNL     1       0.561   1.575 -20.543  0.00  0.00    +0.016 C 
ATOM     14  C   UNL     1       2.536   1.886 -22.106  0.00  0.00    +0.039 C 
ATOM     15  C   UNL     1       2.408   2.535 -24.815  0.00  0.00    +0.041 C 
ATOM     16  O   UNL     1      -2.136   2.549 -24.283  0.00  0.00    -0.245 OA
ATOM     17  C   UNL     1       0.058   1.892 -21.808  0.00  0.00    +0.070 C 
ENDROOT
BRANCH   8  18
ATOM     18  O   UNL     1       5.012   2.353 -24.391  0.00  0.00    -0.387 OA
ATOM     19  H   UNL     1       5.929   2.288 -24.083  0.00  0.00    +0.210 HD
ENDBRANCH   8  18
TORSDOF 1
ENDMDL
