MODEL 1
REMARK VINA RESULT:    -8.054      0.000      0.000
REMARK INTER + INTRA:          -8.290
REMARK INTER:                  -8.290
REMARK INTRA:                   0.000
REMARK UNBOUND:                 0.000
REMARK  Name = ZINC000018286095
REMARK  1 active torsions:
REMARK  status: ('A' for Active; 'I' for Inactive)
REMARK    1  A    between atoms: O_1  and  C_2
REMARK                            x       y       z     vdW  Elec       q    Type
REMARK                         _______ _______ _______ _____ _____    ______ ____
ROOT
ATOM      1  C   UNL     1       0.193   2.063 -23.281  0.00  0.00    +0.233 C 
ATOM      2  C   UNL     1       0.691   1.595 -22.175  0.00  0.00    +0.087 C 
ATOM      3  C   UNL     1      -0.245   1.613 -21.274  0.00  0.00    +0.229 C 
ATOM      4  N   UNL     1      -1.322   2.092 -21.822  0.00  0.00    -0.218 N 
ATOM      5  C   UNL     1      -2.514   2.310 -21.353  0.00  0.00    +0.266 C 
ATOM      6  C   UNL     1      -3.435   2.807 -22.124  0.00  0.00    +0.042 A 
ATOM      7  C   UNL     1      -4.628   3.026 -21.655  0.00  0.00    +0.011 A 
ATOM      8  C   UNL     1      -5.549   3.522 -22.426  0.00  0.00    +0.001 A 
ATOM      9  C   UNL     1      -5.278   3.800 -23.667  0.00  0.00    +0.004 A 
ATOM     10  C   UNL     1      -4.086   3.582 -24.136  0.00  0.00    +0.056 A 
ATOM     11  C   UNL     1      -3.165   3.085 -23.365  0.00  0.00    +0.183 A 
ATOM     12  N   UNL     1      -1.972   2.866 -23.834  0.00  0.00    -0.043 NA
ATOM     13  C   UNL     1      -1.051   2.370 -23.063  0.00  0.00    +0.318 C 
ENDROOT
BRANCH   1  14
ATOM     14  O   UNL     1       0.829   2.199 -24.407  0.00  0.00    -0.380 OA
ATOM     15  H   UNL     1       0.892   3.142 -24.630  0.00  0.00    +0.211 HD
ENDBRANCH   1  14
TORSDOF 1
ENDMDL
MODEL 2
REMARK VINA RESULT:    -8.004      1.260      2.126
REMARK INTER + INTRA:          -8.238
REMARK INTER:                  -8.238
REMARK INTRA:                   0.000
REMARK UNBOUND:                 0.000
REMARK  Name = ZINC000018286095
REMARK  1 active torsions:
REMARK  status: ('A' for Active; 'I' for Inactive)
REMARK    1  A    between atoms: O_1  and  C_2
REMARK                            x       y       z     vdW  Elec       q    Type
REMARK                         _______ _______ _______ _____ _____    ______ ____
ROOT
ATOM      1  C   UNL     1       0.128   1.870 -21.769  0.00  0.00    +0.233 C 
ATOM      2  C   UNL     1       0.936   2.084 -22.764  0.00  0.00    +0.087 C 
ATOM      3  C   UNL     1       0.250   2.618 -23.731  0.00  0.00    +0.229 C 
ATOM      4  N   UNL     1      -0.982   2.733 -23.334  0.00  0.00    -0.218 N 
ATOM      5  C   UNL     1      -2.045   3.200 -23.919  0.00  0.00    +0.266 C 
ATOM      6  C   UNL     1      -3.183   3.204 -23.292  0.00  0.00    +0.042 A 
ATOM      7  C   UNL     1      -4.247   3.670 -23.877  0.00  0.00    +0.011 A 
ATOM      8  C   UNL     1      -5.385   3.674 -23.250  0.00  0.00    +0.001 A 
ATOM      9  C   UNL     1      -5.461   3.212 -22.037  0.00  0.00    +0.004 A 
ATOM     10  C   UNL     1      -4.398   2.745 -21.452  0.00  0.00    +0.056 A 
ATOM     11  C   UNL     1      -3.260   2.741 -22.079  0.00  0.00    +0.183 A 
ATOM     12  N   UNL     1      -2.196   2.275 -21.494  0.00  0.00    -0.043 NA
ATOM     13  C   UNL     1      -1.058   2.271 -22.121  0.00  0.00    +0.318 C 
ENDROOT
BRANCH   1  14
ATOM     14  O   UNL     1       0.449   1.346 -20.623  0.00  0.00    -0.380 OA
ATOM     15  H   UNL     1       0.988   0.552 -20.770  0.00  0.00    +0.211 HD
ENDBRANCH   1  14
TORSDOF 1
ENDMDL
MODEL 3
REMARK VINA RESULT:    -7.730      1.877      4.393
REMARK INTER + INTRA:          -7.956
REMARK INTER:                  -7.956
REMARK INTRA:                   0.000
REMARK UNBOUND:                 0.000
REMARK  Name = ZINC000018286095
REMARK  1 active torsions:
REMARK  status: ('A' for Active; 'I' for Inactive)
REMARK    1  A    between atoms: O_1  and  C_2
REMARK                            x       y       z     vdW  Elec       q    Type
REMARK                         _______ _______ _______ _____ _____    ______ ____
ROOT
ATOM      1  C   UNL     1      -4.559   3.958 -24.444  0.00  0.00    +0.233 C 
ATOM      2  C   UNL     1      -5.566   3.897 -23.625  0.00  0.00    +0.087 C 
ATOM      3  C   UNL     1      -5.145   3.378 -22.509  0.00  0.00    +0.229 C 
ATOM      4  N   UNL     1      -3.878   3.119 -22.639  0.00  0.00    -0.218 N 
ATOM      5  C   UNL     1      -3.008   2.603 -21.823  0.00  0.00    +0.266 C 
ATOM      6  C   UNL     1      -1.775   2.446 -22.204  0.00  0.00    +0.042 A 
ATOM      7  C   UNL     1      -0.903   1.930 -21.388  0.00  0.00    +0.011 A 
ATOM      8  C   UNL     1       0.330   1.773 -21.768  0.00  0.00    +0.001 A 
ATOM      9  C   UNL     1       0.692   2.131 -22.964  0.00  0.00    +0.004 A 
ATOM     10  C   UNL     1      -0.178   2.647 -23.779  0.00  0.00    +0.056 A 
ATOM     11  C   UNL     1      -1.411   2.804 -23.399  0.00  0.00    +0.183 A 
ATOM     12  N   UNL     1      -2.283   3.321 -24.215  0.00  0.00    -0.043 NA
ATOM     13  C   UNL     1      -3.516   3.478 -23.835  0.00  0.00    +0.318 C 
ENDROOT
BRANCH   1  14
ATOM     14  O   UNL     1      -4.590   4.420 -25.659  0.00  0.00    -0.380 OA
ATOM     15  H   UNL     1      -5.284   5.095 -25.731  0.00  0.00    +0.211 HD
ENDBRANCH   1  14
TORSDOF 1
ENDMDL
MODEL 4
REMARK VINA RESULT:    -7.558      1.269      1.528
REMARK INTER + INTRA:          -7.778
REMARK INTER:                  -7.778
REMARK INTRA:                   0.000
REMARK UNBOUND:                 0.000
REMARK  Name = ZINC000018286095
REMARK  1 active torsions:
REMARK  status: ('A' for Active; 'I' for Inactive)
REMARK    1  A    between atoms: O_1  and  C_2
REMARK                            x       y       z     vdW  Elec       q    Type
REMARK                         _______ _______ _______ _____ _____    ______ ____
ROOT
ATOM      1  C   UNL     1       0.591   3.064 -24.789  0.00  0.00    +0.233 C 
ATOM      2  C   UNL     1       1.234   2.553 -23.782  0.00  0.00    +0.087 C 
ATOM      3  C   UNL     1       0.387   2.381 -22.810  0.00  0.00    +0.229 C 
ATOM      4  N   UNL     1      -0.779   2.785 -23.217  0.00  0.00    -0.218 N 
ATOM      5  C   UNL     1      -1.939   2.824 -22.632  0.00  0.00    +0.266 C 
ATOM      6  C   UNL     1      -2.973   3.285 -23.270  0.00  0.00    +0.042 A 
ATOM      7  C   UNL     1      -4.134   3.324 -22.685  0.00  0.00    +0.011 A 
ATOM      8  C   UNL     1      -5.168   3.785 -23.323  0.00  0.00    +0.001 A 
ATOM      9  C   UNL     1      -5.043   4.208 -24.546  0.00  0.00    +0.004 A 
ATOM     10  C   UNL     1      -3.883   4.169 -25.131  0.00  0.00    +0.056 A 
ATOM     11  C   UNL     1      -2.848   3.708 -24.493  0.00  0.00    +0.183 A 
ATOM     12  N   UNL     1      -1.687   3.669 -25.078  0.00  0.00    -0.043 NA
ATOM     13  C   UNL     1      -0.653   3.208 -24.440  0.00  0.00    +0.318 C 
ENDROOT
BRANCH   1  14
ATOM     14  O   UNL     1       1.103   3.377 -25.942  0.00  0.00    -0.380 OA
ATOM     15  H   UNL     1       2.034   3.623 -25.827  0.00  0.00    +0.211 HD
ENDBRANCH   1  14
TORSDOF 1
ENDMDL
MODEL 5
REMARK VINA RESULT:    -7.543      2.202      4.861
REMARK INTER + INTRA:          -7.763
REMARK INTER:                  -7.763
REMARK INTRA:                   0.000
REMARK UNBOUND:                 0.000
REMARK  Name = ZINC000018286095
REMARK  1 active torsions:
REMARK  status: ('A' for Active; 'I' for Inactive)
REMARK    1  A    between atoms: O_1  and  C_2
REMARK                            x       y       z     vdW  Elec       q    Type
REMARK                         _______ _______ _______ _____ _____    ______ ____
ROOT
ATOM      1  C   UNL     1      -4.982   3.770 -23.339  0.00  0.00    +0.233 C 
ATOM      2  C   UNL     1      -5.109   4.297 -24.520  0.00  0.00    +0.087 C 
ATOM      3  C   UNL     1      -3.955   4.236 -25.113  0.00  0.00    +0.229 C 
ATOM      4  N   UNL     1      -3.113   3.670 -24.300  0.00  0.00    -0.218 N 
ATOM      5  C   UNL     1      -1.852   3.381 -24.415  0.00  0.00    +0.266 C 
ATOM      6  C   UNL     1      -1.225   2.803 -23.434  0.00  0.00    +0.042 A 
ATOM      7  C   UNL     1       0.037   2.513 -23.550  0.00  0.00    +0.011 A 
ATOM      8  C   UNL     1       0.664   1.935 -22.568  0.00  0.00    +0.001 A 
ATOM      9  C   UNL     1       0.029   1.646 -21.471  0.00  0.00    +0.004 A 
ATOM     10  C   UNL     1      -1.233   1.936 -21.356  0.00  0.00    +0.056 A 
ATOM     11  C   UNL     1      -1.860   2.514 -22.337  0.00  0.00    +0.183 A 
ATOM     12  N   UNL     1      -3.122   2.804 -22.221  0.00  0.00    -0.043 NA
ATOM     13  C   UNL     1      -3.749   3.382 -23.203  0.00  0.00    +0.318 C 
ENDROOT
BRANCH   1  14
ATOM     14  O   UNL     1      -5.924   3.650 -22.450  0.00  0.00    -0.380 OA
ATOM     15  H   UNL     1      -6.789   3.729 -22.883  0.00  0.00    +0.211 HD
ENDBRANCH   1  14
TORSDOF 1
ENDMDL
MODEL 6
REMARK VINA RESULT:    -7.216      2.561      3.791
REMARK INTER + INTRA:          -7.427
REMARK INTER:                  -7.427
REMARK INTRA:                   0.000
REMARK UNBOUND:                 0.000
REMARK  Name = ZINC000018286095
REMARK  1 active torsions:
REMARK  status: ('A' for Active; 'I' for Inactive)
REMARK    1  A    between atoms: O_1  and  C_2
REMARK                            x       y       z     vdW  Elec       q    Type
REMARK                         _______ _______ _______ _____ _____    ______ ____
ROOT
ATOM      1  C   UNL     1      -3.788   3.171 -26.080  0.00  0.00    +0.233 C 
ATOM      2  C   UNL     1      -2.673   3.401 -26.707  0.00  0.00    +0.087 C 
ATOM      3  C   UNL     1      -1.758   3.658 -25.819  0.00  0.00    +0.229 C 
ATOM      4  N   UNL     1      -2.307   3.587 -24.644  0.00  0.00    -0.218 N 
ATOM      5  C   UNL     1      -1.828   3.758 -23.448  0.00  0.00    +0.266 C 
ATOM      6  C   UNL     1      -2.603   3.627 -22.412  0.00  0.00    +0.042 A 
ATOM      7  C   UNL     1      -2.124   3.797 -21.215  0.00  0.00    +0.011 A 
ATOM      8  C   UNL     1      -2.899   3.667 -20.180  0.00  0.00    +0.001 A 
ATOM      9  C   UNL     1      -4.153   3.366 -20.341  0.00  0.00    +0.004 A 
ATOM     10  C   UNL     1      -4.633   3.196 -21.537  0.00  0.00    +0.056 A 
ATOM     11  C   UNL     1      -3.858   3.326 -22.572  0.00  0.00    +0.183 A 
ATOM     12  N   UNL     1      -4.337   3.156 -23.769  0.00  0.00    -0.043 NA
ATOM     13  C   UNL     1      -3.562   3.286 -24.804  0.00  0.00    +0.318 C 
ENDROOT
BRANCH   1  14
ATOM     14  O   UNL     1      -4.928   2.878 -26.631  0.00  0.00    -0.380 OA
ATOM     15  H   UNL     1      -5.614   3.473 -26.290  0.00  0.00    +0.211 HD
ENDBRANCH   1  14
TORSDOF 1
ENDMDL
MODEL 7
REMARK VINA RESULT:    -7.036      2.207      3.323
REMARK INTER + INTRA:          -7.242
REMARK INTER:                  -7.242
REMARK INTRA:                   0.000
REMARK UNBOUND:                 0.000
REMARK  Name = ZINC000018286095
REMARK  1 active torsions:
REMARK  status: ('A' for Active; 'I' for Inactive)
REMARK    1  A    between atoms: O_1  and  C_2
REMARK                            x       y       z     vdW  Elec       q    Type
REMARK                         _______ _______ _______ _____ _____    ______ ____
ROOT
ATOM      1  C   UNL     1       3.315   1.198 -23.553  0.00  0.00    +0.233 C 
ATOM      2  C   UNL     1       3.938   0.745 -22.506  0.00  0.00    +0.087 C 
ATOM      3  C   UNL     1       3.114   0.785 -21.501  0.00  0.00    +0.229 C 
ATOM      4  N   UNL     1       1.983   1.263 -21.927  0.00  0.00    -0.218 N 
ATOM      5  C   UNL     1       0.855   1.498 -21.324  0.00  0.00    +0.266 C 
ATOM      6  C   UNL     1      -0.147   1.989 -21.990  0.00  0.00    +0.042 A 
ATOM      7  C   UNL     1      -1.275   2.224 -21.387  0.00  0.00    +0.011 A 
ATOM      8  C   UNL     1      -2.278   2.715 -22.053  0.00  0.00    +0.001 A 
ATOM      9  C   UNL     1      -2.154   2.971 -23.321  0.00  0.00    +0.004 A 
ATOM     10  C   UNL     1      -1.026   2.735 -23.924  0.00  0.00    +0.056 A 
ATOM     11  C   UNL     1      -0.024   2.245 -23.258  0.00  0.00    +0.183 A 
ATOM     12  N   UNL     1       1.104   2.009 -23.861  0.00  0.00    -0.043 NA
ATOM     13  C   UNL     1       2.107   1.518 -23.195  0.00  0.00    +0.318 C 
ENDROOT
BRANCH   1  14
ATOM     14  O   UNL     1       3.814   1.312 -24.749  0.00  0.00    -0.380 OA
ATOM     15  H   UNL     1       4.652   0.823 -24.797  0.00  0.00    +0.211 HD
ENDBRANCH   1  14
TORSDOF 1
ENDMDL
MODEL 8
REMARK VINA RESULT:    -6.509      3.612      4.689
REMARK INTER + INTRA:          -6.699
REMARK INTER:                  -6.699
REMARK INTRA:                   0.000
REMARK UNBOUND:                 0.000
REMARK  Name = ZINC000018286095
REMARK  1 active torsions:
REMARK  status: ('A' for Active; 'I' for Inactive)
REMARK    1  A    between atoms: O_1  and  C_2
REMARK                            x       y       z     vdW  Elec       q    Type
REMARK                         _______ _______ _______ _____ _____    ______ ____
ROOT
ATOM      1  C   UNL     1       4.239   4.763 -23.078  0.00  0.00    +0.233 C 
ATOM      2  C   UNL     1       4.958   3.714 -23.346  0.00  0.00    +0.087 C 
ATOM      3  C   UNL     1       4.154   2.759 -23.710  0.00  0.00    +0.229 C 
ATOM      4  N   UNL     1       2.939   3.218 -23.666  0.00  0.00    -0.218 N 
ATOM      5  C   UNL     1       1.791   2.668 -23.932  0.00  0.00    +0.266 C 
ATOM      6  C   UNL     1       0.696   3.357 -23.806  0.00  0.00    +0.042 A 
ATOM      7  C   UNL     1      -0.452   2.807 -24.071  0.00  0.00    +0.011 A 
ATOM      8  C   UNL     1      -1.547   3.496 -23.946  0.00  0.00    +0.001 A 
ATOM      9  C   UNL     1      -1.495   4.735 -23.555  0.00  0.00    +0.004 A 
ATOM     10  C   UNL     1      -0.347   5.285 -23.290  0.00  0.00    +0.056 A 
ATOM     11  C   UNL     1       0.748   4.596 -23.415  0.00  0.00    +0.183 A 
ATOM     12  N   UNL     1       1.896   5.145 -23.150  0.00  0.00    -0.043 NA
ATOM     13  C   UNL     1       2.991   4.456 -23.275  0.00  0.00    +0.318 C 
ENDROOT
BRANCH   1  14
ATOM     14  O   UNL     1       4.690   5.916 -22.681  0.00  0.00    -0.380 OA
ATOM     15  H   UNL     1       4.052   6.319 -22.070  0.00  0.00    +0.211 HD
ENDBRANCH   1  14
TORSDOF 1
ENDMDL
MODEL 9
REMARK VINA RESULT:    -6.501      2.094      5.161
REMARK INTER + INTRA:          -6.691
REMARK INTER:                  -6.691
REMARK INTRA:                   0.000
REMARK UNBOUND:                 0.000
REMARK  Name = ZINC000018286095
REMARK  1 active torsions:
REMARK  status: ('A' for Active; 'I' for Inactive)
REMARK    1  A    between atoms: O_1  and  C_2
REMARK                            x       y       z     vdW  Elec       q    Type
REMARK                         _______ _______ _______ _____ _____    ______ ____
ROOT
ATOM      1  C   UNL     1      -3.339   3.110 -23.072  0.00  0.00    +0.233 C 
ATOM      2  C   UNL     1      -3.985   3.730 -24.014  0.00  0.00    +0.087 C 
ATOM      3  C   UNL     1      -3.136   4.034 -24.950  0.00  0.00    +0.229 C 
ATOM      4  N   UNL     1      -1.965   3.602 -24.587  0.00  0.00    -0.218 N 
ATOM      5  C   UNL     1      -0.801   3.655 -25.163  0.00  0.00    +0.266 C 
ATOM      6  C   UNL     1       0.238   3.137 -24.579  0.00  0.00    +0.042 A 
ATOM      7  C   UNL     1       1.402   3.189 -25.155  0.00  0.00    +0.011 A 
ATOM      8  C   UNL     1       2.441   2.671 -24.570  0.00  0.00    +0.001 A 
ATOM      9  C   UNL     1       2.316   2.099 -23.409  0.00  0.00    +0.004 A 
ATOM     10  C   UNL     1       1.152   2.046 -22.833  0.00  0.00    +0.056 A 
ATOM     11  C   UNL     1       0.113   2.565 -23.418  0.00  0.00    +0.183 A 
ATOM     12  N   UNL     1      -1.051   2.512 -22.842  0.00  0.00    -0.043 NA
ATOM     13  C   UNL     1      -2.090   3.031 -23.426  0.00  0.00    +0.318 C 
ENDROOT
BRANCH   1  14
ATOM     14  O   UNL     1      -3.851   2.650 -21.970  0.00  0.00    -0.380 OA
ATOM     15  H   UNL     1      -4.669   2.167 -22.170  0.00  0.00    +0.211 HD
ENDBRANCH   1  14
TORSDOF 1
ENDMDL
