MODEL 1
REMARK VINA RESULT:   -10.983      0.000      0.000
REMARK INTER + INTRA:         -12.050
REMARK INTER:                 -12.278
REMARK INTRA:                   0.229
REMARK UNBOUND:                 0.218
REMARK  Name = ZINC000019701798
REMARK  4 active torsions:
REMARK  status: ('A' for Active; 'I' for Inactive)
REMARK    1  A    between atoms: C_1  and  O_2
REMARK    2  A    between atoms: O_2  and  C_3
REMARK    3  A    between atoms: C_8  and  O_9
REMARK    4  A    between atoms: O_9  and  C_10
REMARK                            x       y       z     vdW  Elec       q    Type
REMARK                         _______ _______ _______ _____ _____    ______ ____
ROOT
ATOM      1  C   UNL     1      -4.276   3.321 -22.501  0.00  0.00    +0.162 A 
ATOM      2  C   UNL     1      -3.929   2.707 -21.410  0.00  0.00    +0.050 A 
ATOM      3  C   UNL     1      -2.702   2.306 -21.250  0.00  0.00    +0.008 A 
ATOM      4  C   UNL     1      -1.822   2.521 -22.184  0.00  0.00    -0.030 A 
ATOM      5  C   UNL     1      -2.169   3.135 -23.275  0.00  0.00    +0.046 A 
ATOM      6  C   UNL     1      -1.290   3.349 -24.208  0.00  0.00    +0.172 C 
ATOM      7  N   UNL     1      -0.063   2.949 -24.049  0.00  0.00    +0.244 N 
ATOM      8  H   UNL     1      -0.263   3.424 -24.930  0.00  0.00    +0.204 HD
ATOM      9  C   UNL     1       0.817   3.163 -24.981  0.00  0.00    +0.137 C 
ATOM     10  C   UNL     1       2.043   2.763 -24.822  0.00  0.00    +0.086 C 
ATOM     11  C   UNL     1       2.390   2.149 -23.731  0.00  0.00    -0.030 A 
ATOM     12  C   UNL     1       3.617   1.748 -23.571  0.00  0.00    +0.053 A 
ATOM     13  C   UNL     1       3.963   1.134 -22.479  0.00  0.00    +0.167 A 
ATOM     14  C   UNL     1       3.083   0.920 -21.547  0.00  0.00    +0.167 A 
ATOM     15  O   UNL     1       3.676   0.297 -20.572  0.00  0.00    -0.453 OA
ATOM     16  C   UNL     1       4.921   0.125 -20.901  0.00  0.00    +0.466 C 
ATOM     17  C   UNL     1       1.857   1.320 -21.706  0.00  0.00    +0.059 A 
ATOM     18  O   UNL     1       5.099   0.643 -22.080  0.00  0.00    -0.453 OA
ATOM     19  C   UNL     1       1.510   1.935 -22.798  0.00  0.00    +0.008 A 
ATOM     20  C   UNL     1       0.284   2.335 -22.957  0.00  0.00    +0.100 C 
ATOM     21  C   UNL     1      -0.596   2.121 -22.024  0.00  0.00    +0.095 C 
ATOM     22  C   UNL     1      -3.396   3.536 -23.435  0.00  0.00    +0.170 A 
ENDROOT
BRANCH   1  24
ATOM     23  C   UNL     1      -6.479   3.052 -22.126  0.00  0.00    +0.277 C 
ATOM     24  O   UNL     1      -5.503   3.722 -22.661  0.00  0.00    -0.491 OA
ENDBRANCH   1  24
BRANCH  22  25
ATOM     25  O   UNL     1      -3.743   4.150 -24.527  0.00  0.00    -0.491 OA
ATOM     26  C   UNL     1      -4.302   3.488 -25.495  0.00  0.00    +0.277 C 
ENDBRANCH  22  25
TORSDOF 2
ENDMDL
MODEL 2
REMARK VINA RESULT:   -10.367      1.029      7.039
REMARK INTER + INTRA:         -11.362
REMARK INTER:                 -11.631
REMARK INTRA:                   0.269
REMARK UNBOUND:                 0.218
REMARK  Name = ZINC000019701798
REMARK  4 active torsions:
REMARK  status: ('A' for Active; 'I' for Inactive)
REMARK    1  A    between atoms: C_1  and  O_2
REMARK    2  A    between atoms: O_2  and  C_3
REMARK    3  A    between atoms: C_8  and  O_9
REMARK    4  A    between atoms: O_9  and  C_10
REMARK                            x       y       z     vdW  Elec       q    Type
REMARK                         _______ _______ _______ _____ _____    ______ ____
ROOT
ATOM      1  C   UNL     1       3.680   1.351 -21.615  0.00  0.00    +0.162 A 
ATOM      2  C   UNL     1       2.852   1.119 -20.640  0.00  0.00    +0.050 A 
ATOM      3  C   UNL     1       1.590   1.399 -20.778  0.00  0.00    +0.008 A 
ATOM      4  C   UNL     1       1.156   1.911 -21.892  0.00  0.00    -0.030 A 
ATOM      5  C   UNL     1       1.984   2.142 -22.867  0.00  0.00    +0.046 A 
ATOM      6  C   UNL     1       1.550   2.653 -23.981  0.00  0.00    +0.172 C 
ATOM      7  N   UNL     1       0.287   2.933 -24.119  0.00  0.00    +0.244 N 
ATOM      8  H   UNL     1       0.878   3.141 -24.925  0.00  0.00    +0.204 HD
ATOM      9  C   UNL     1      -0.146   3.444 -25.232  0.00  0.00    +0.137 C 
ATOM     10  C   UNL     1      -1.408   3.724 -25.371  0.00  0.00    +0.086 C 
ATOM     11  C   UNL     1      -2.236   3.493 -24.396  0.00  0.00    -0.030 A 
ATOM     12  C   UNL     1      -3.498   3.772 -24.534  0.00  0.00    +0.053 A 
ATOM     13  C   UNL     1      -4.325   3.541 -23.558  0.00  0.00    +0.167 A 
ATOM     14  C   UNL     1      -3.891   3.030 -22.445  0.00  0.00    +0.167 A 
ATOM     15  O   UNL     1      -4.905   2.898 -21.642  0.00  0.00    -0.453 OA
ATOM     16  C   UNL     1      -5.966   3.328 -22.258  0.00  0.00    +0.466 C 
ATOM     17  C   UNL     1      -2.629   2.750 -22.307  0.00  0.00    +0.059 A 
ATOM     18  O   UNL     1      -5.607   3.725 -23.443  0.00  0.00    -0.453 OA
ATOM     19  C   UNL     1      -1.801   2.981 -23.282  0.00  0.00    +0.008 A 
ATOM     20  C   UNL     1      -0.540   2.701 -23.144  0.00  0.00    +0.100 C 
ATOM     21  C   UNL     1      -0.106   2.190 -22.030  0.00  0.00    +0.095 C 
ATOM     22  C   UNL     1       3.246   1.862 -22.729  0.00  0.00    +0.170 A 
ENDROOT
BRANCH   1  24
ATOM     23  C   UNL     1       5.314   0.136 -20.655  0.00  0.00    +0.277 C 
ATOM     24  O   UNL     1       4.942   1.071 -21.477  0.00  0.00    -0.491 OA
ENDBRANCH   1  24
BRANCH  22  25
ATOM     25  O   UNL     1       4.074   2.094 -23.704  0.00  0.00    -0.491 OA
ATOM     26  C   UNL     1       4.884   3.108 -23.642  0.00  0.00    +0.277 C 
ENDBRANCH  22  25
TORSDOF 2
ENDMDL
MODEL 3
REMARK VINA RESULT:    -9.897      1.670      7.579
REMARK INTER + INTRA:         -10.837
REMARK INTER:                 -11.069
REMARK INTRA:                   0.232
REMARK UNBOUND:                 0.218
REMARK  Name = ZINC000019701798
REMARK  4 active torsions:
REMARK  status: ('A' for Active; 'I' for Inactive)
REMARK    1  A    between atoms: C_1  and  O_2
REMARK    2  A    between atoms: O_2  and  C_3
REMARK    3  A    between atoms: C_8  and  O_9
REMARK    4  A    between atoms: O_9  and  C_10
REMARK                            x       y       z     vdW  Elec       q    Type
REMARK                         _______ _______ _______ _____ _____    ______ ____
ROOT
ATOM      1  C   UNL     1       4.886   3.108 -22.491  0.00  0.00    +0.162 A 
ATOM      2  C   UNL     1       4.525   3.973 -23.392  0.00  0.00    +0.050 A 
ATOM      3  C   UNL     1       3.264   4.148 -23.657  0.00  0.00    +0.008 A 
ATOM      4  C   UNL     1       2.364   3.457 -23.021  0.00  0.00    -0.030 A 
ATOM      5  C   UNL     1       2.726   2.591 -22.120  0.00  0.00    +0.046 A 
ATOM      6  C   UNL     1       1.827   1.901 -21.485  0.00  0.00    +0.172 C 
ATOM      7  N   UNL     1       0.565   2.076 -21.750  0.00  0.00    +0.244 N 
ATOM      8  H   UNL     1       0.775   1.381 -21.033  0.00  0.00    +0.204 HD
ATOM      9  C   UNL     1      -0.334   1.386 -21.115  0.00  0.00    +0.137 C 
ATOM     10  C   UNL     1      -1.594   1.560 -21.380  0.00  0.00    +0.086 C 
ATOM     11  C   UNL     1      -1.956   2.425 -22.280  0.00  0.00    -0.030 A 
ATOM     12  C   UNL     1      -3.216   2.600 -22.545  0.00  0.00    +0.053 A 
ATOM     13  C   UNL     1      -3.577   3.465 -23.446  0.00  0.00    +0.167 A 
ATOM     14  C   UNL     1      -2.678   4.156 -24.081  0.00  0.00    +0.167 A 
ATOM     15  O   UNL     1      -3.290   4.940 -24.917  0.00  0.00    -0.453 OA
ATOM     16  C   UNL     1      -4.568   4.735 -24.799  0.00  0.00    +0.466 C 
ATOM     17  C   UNL     1      -1.417   3.981 -23.816  0.00  0.00    +0.059 A 
ATOM     18  O   UNL     1      -4.746   3.823 -23.890  0.00  0.00    -0.453 OA
ATOM     19  C   UNL     1      -1.056   3.115 -22.915  0.00  0.00    +0.008 A 
ATOM     20  C   UNL     1       0.205   2.941 -22.651  0.00  0.00    +0.100 C 
ATOM     21  C   UNL     1       1.104   3.632 -23.286  0.00  0.00    +0.095 C 
ATOM     22  C   UNL     1       3.986   2.416 -21.855  0.00  0.00    +0.170 A 
ENDROOT
BRANCH   1  24
ATOM     23  C   UNL     1       6.870   3.933 -21.819  0.00  0.00    +0.277 C 
ATOM     24  O   UNL     1       6.147   2.933 -22.226  0.00  0.00    -0.491 OA
ENDBRANCH   1  24
BRANCH  22  25
ATOM     25  O   UNL     1       4.348   1.551 -20.955  0.00  0.00    -0.491 OA
ATOM     26  C   UNL     1       4.747   0.368 -21.314  0.00  0.00    +0.277 C 
ENDBRANCH  22  25
TORSDOF 2
ENDMDL
MODEL 4
REMARK VINA RESULT:    -9.658      1.673      3.095
REMARK INTER + INTRA:         -10.570
REMARK INTER:                 -10.786
REMARK INTRA:                   0.216
REMARK UNBOUND:                 0.218
REMARK  Name = ZINC000019701798
REMARK  4 active torsions:
REMARK  status: ('A' for Active; 'I' for Inactive)
REMARK    1  A    between atoms: C_1  and  O_2
REMARK    2  A    between atoms: O_2  and  C_3
REMARK    3  A    between atoms: C_8  and  O_9
REMARK    4  A    between atoms: O_9  and  C_10
REMARK                            x       y       z     vdW  Elec       q    Type
REMARK                         _______ _______ _______ _____ _____    ______ ____
ROOT
ATOM      1  C   UNL     1      -3.015   3.311 -24.229  0.00  0.00    +0.162 A 
ATOM      2  C   UNL     1      -2.237   3.808 -25.144  0.00  0.00    +0.050 A 
ATOM      3  C   UNL     1      -0.946   3.756 -24.999  0.00  0.00    +0.008 A 
ATOM      4  C   UNL     1      -0.433   3.206 -23.938  0.00  0.00    -0.030 A 
ATOM      5  C   UNL     1      -1.211   2.708 -23.023  0.00  0.00    +0.046 A 
ATOM      6  C   UNL     1      -0.698   2.159 -21.963  0.00  0.00    +0.172 C 
ATOM      7  N   UNL     1       0.593   2.107 -21.817  0.00  0.00    +0.244 N 
ATOM      8  H   UNL     1       0.045   1.697 -21.060  0.00  0.00    +0.204 HD
ATOM      9  C   UNL     1       1.106   1.557 -20.757  0.00  0.00    +0.137 C 
ATOM     10  C   UNL     1       2.396   1.504 -20.612  0.00  0.00    +0.086 C 
ATOM     11  C   UNL     1       3.174   2.001 -21.527  0.00  0.00    -0.030 A 
ATOM     12  C   UNL     1       4.465   1.949 -21.382  0.00  0.00    +0.053 A 
ATOM     13  C   UNL     1       5.243   2.446 -22.297  0.00  0.00    +0.167 A 
ATOM     14  C   UNL     1       4.730   2.996 -23.358  0.00  0.00    +0.167 A 
ATOM     15  O   UNL     1       5.707   3.410 -24.108  0.00  0.00    -0.453 OA
ATOM     16  C   UNL     1       6.825   3.116 -23.512  0.00  0.00    +0.466 C 
ATOM     17  C   UNL     1       3.439   3.048 -23.502  0.00  0.00    +0.059 A 
ATOM     18  O   UNL     1       6.537   2.521 -22.393  0.00  0.00    -0.453 OA
ATOM     19  C   UNL     1       2.661   2.551 -22.587  0.00  0.00    +0.008 A 
ATOM     20  C   UNL     1       1.371   2.604 -22.733  0.00  0.00    +0.100 C 
ATOM     21  C   UNL     1       0.858   3.153 -23.793  0.00  0.00    +0.095 C 
ATOM     22  C   UNL     1      -2.502   2.761 -23.168  0.00  0.00    +0.170 A 
ENDROOT
BRANCH   1  24
ATOM     23  C   UNL     1      -4.873   4.473 -24.742  0.00  0.00    +0.277 C 
ATOM     24  O   UNL     1      -4.306   3.363 -24.374  0.00  0.00    -0.491 OA
ENDBRANCH   1  24
BRANCH  22  25
ATOM     25  O   UNL     1      -3.280   2.264 -22.252  0.00  0.00    -0.491 OA
ATOM     26  C   UNL     1      -3.814   3.044 -21.361  0.00  0.00    +0.277 C 
ENDBRANCH  22  25
TORSDOF 2
ENDMDL
MODEL 5
REMARK VINA RESULT:    -8.682      3.174      4.559
REMARK INTER + INTRA:          -9.479
REMARK INTER:                  -9.796
REMARK INTRA:                   0.317
REMARK UNBOUND:                 0.218
REMARK  Name = ZINC000019701798
REMARK  4 active torsions:
REMARK  status: ('A' for Active; 'I' for Inactive)
REMARK    1  A    between atoms: C_1  and  O_2
REMARK    2  A    between atoms: O_2  and  C_3
REMARK    3  A    between atoms: C_8  and  O_9
REMARK    4  A    between atoms: O_9  and  C_10
REMARK                            x       y       z     vdW  Elec       q    Type
REMARK                         _______ _______ _______ _____ _____    ______ ____
ROOT
ATOM      1  C   UNL     1      -1.078   3.686 -23.380  0.00  0.00    +0.162 A 
ATOM      2  C   UNL     1      -0.635   4.893 -23.575  0.00  0.00    +0.050 A 
ATOM      3  C   UNL     1       0.639   5.138 -23.504  0.00  0.00    +0.008 A 
ATOM      4  C   UNL     1       1.472   4.174 -23.237  0.00  0.00    -0.030 A 
ATOM      5  C   UNL     1       1.029   2.968 -23.042  0.00  0.00    +0.046 A 
ATOM      6  C   UNL     1       1.861   2.006 -22.775  0.00  0.00    +0.172 C 
ATOM      7  N   UNL     1       3.137   2.250 -22.704  0.00  0.00    +0.244 N 
ATOM      8  H   UNL     1       2.861   1.281 -22.540  0.00  0.00    +0.204 HD
ATOM      9  C   UNL     1       3.969   1.288 -22.438  0.00  0.00    +0.137 C 
ATOM     10  C   UNL     1       5.243   1.532 -22.366  0.00  0.00    +0.086 C 
ATOM     11  C   UNL     1       5.686   2.738 -22.561  0.00  0.00    -0.030 A 
ATOM     12  C   UNL     1       6.961   2.983 -22.490  0.00  0.00    +0.053 A 
ATOM     13  C   UNL     1       7.403   4.190 -22.685  0.00  0.00    +0.167 A 
ATOM     14  C   UNL     1       6.571   5.152 -22.952  0.00  0.00    +0.167 A 
ATOM     15  O   UNL     1       7.257   6.246 -23.102  0.00  0.00    -0.453 OA
ATOM     16  C   UNL     1       8.513   5.960 -22.929  0.00  0.00    +0.466 C 
ATOM     17  C   UNL     1       5.296   4.907 -23.023  0.00  0.00    +0.059 A 
ATOM     18  O   UNL     1       8.603   4.689 -22.671  0.00  0.00    -0.453 OA
ATOM     19  C   UNL     1       4.853   3.701 -22.828  0.00  0.00    +0.008 A 
ATOM     20  C   UNL     1       3.579   3.457 -22.899  0.00  0.00    +0.100 C 
ATOM     21  C   UNL     1       2.747   4.419 -23.166  0.00  0.00    +0.095 C 
ATOM     22  C   UNL     1      -0.246   2.723 -23.113  0.00  0.00    +0.170 A 
ENDROOT
BRANCH   1  24
ATOM     23  C   UNL     1      -2.921   3.289 -24.610  0.00  0.00    +0.277 C 
ATOM     24  O   UNL     1      -2.353   3.442 -23.451  0.00  0.00    -0.491 OA
ENDBRANCH   1  24
BRANCH  22  25
ATOM     25  O   UNL     1      -0.689   1.517 -22.918  0.00  0.00    -0.491 OA
ATOM     26  C   UNL     1      -0.991   1.122 -21.717  0.00  0.00    +0.277 C 
ENDBRANCH  22  25
TORSDOF 2
ENDMDL
