MODEL 1
REMARK VINA RESULT:    -8.347      0.000      0.000
REMARK INTER + INTRA:         -11.807
REMARK INTER:                 -10.041
REMARK INTRA:                  -1.767
REMARK UNBOUND:                -0.533
REMARK  Name = ZINC000004762374
REMARK  6 active torsions:
REMARK  status: ('A' for Active; 'I' for Inactive)
REMARK    1  A    between atoms: C_2  and  CA_4
REMARK    2  A    between atoms: CA_4  and  CB_5
REMARK    3  A    between atoms: CA_4  and  N_12
REMARK    4  A    between atoms: CB_5  and  CG_6
REMARK    5  A    between atoms: N_12  and  C_13
REMARK    6  A    between atoms: C_13  and  C_14
REMARK                            x       y       z     vdW  Elec       q    Type
REMARK                         _______ _______ _______ _____ _____    ______ ____
ROOT
ATOM      1  CA  PHE A   1       2.050   1.525 -21.744  0.00  0.00    +0.114 C 
ENDROOT
BRANCH   1   2
ATOM      2  N   PHE A   1       0.919   1.562 -21.105  0.00  0.00    +0.237 N 
ATOM      3  H1  PHE A   1       1.050   0.883 -20.355  0.00  0.00    +0.202 HD
ATOM      4  H2  PHE A   1       0.763   2.534 -20.836  0.00  0.00    +0.202 HD
BRANCH   2   5
ATOM      5  C   UNK A   0      -0.170   1.156 -21.687  0.00  0.00    +0.166 C 
BRANCH   5   6
ATOM      6  C   UNK A   0      -1.036   2.021 -22.123  0.00  0.00    -0.003 A 
ATOM      7  C   UNK A   0      -1.506   2.932 -21.322  0.00  0.00    +0.009 A 
ATOM      8  C   UNK A   0      -2.372   3.798 -21.757  0.00  0.00    +0.000 A 
ATOM      9  C   UNK A   0      -2.769   3.753 -22.995  0.00  0.00    +0.000 A 
ATOM     10  C   UNK A   0      -2.300   2.843 -23.796  0.00  0.00    +0.000 A 
ATOM     11  C   UNK A   0      -1.434   1.978 -23.359  0.00  0.00    +0.009 A 
ENDBRANCH   5   6
ENDBRANCH   2   5
ENDBRANCH   1   2
BRANCH   1  13
ATOM     12  O   PHE A   1       3.521   0.013 -20.957  0.00  0.00    -0.544 OA
ATOM     13  C   PHE A   1       2.686   0.399 -21.875  0.00  0.00    +0.090 C 
ATOM     14  OXT PHE A   1       2.487  -0.341 -22.926  0.00  0.00    -0.544 OA
ENDBRANCH   1  13
BRANCH   1  15
ATOM     15  CB  PHE A   1       2.545   2.615 -22.251  0.00  0.00    +0.095 C 
BRANCH  15  16
ATOM     16  CG  PHE A   1       2.004   3.144 -23.308  0.00  0.00    -0.042 A 
ATOM     17  CD2 PHE A   1       2.036   2.508 -24.442  0.00  0.00    +0.004 A 
ATOM     18  CE2 PHE A   1       1.496   3.035 -25.500  0.00  0.00    +0.000 A 
ATOM     19  CZ  PHE A   1       0.923   4.200 -25.424  0.00  0.00    +0.000 A 
ATOM     20  CE1 PHE A   1       0.890   4.836 -24.291  0.00  0.00    +0.000 A 
ATOM     21  CD1 PHE A   1       1.431   4.308 -23.232  0.00  0.00    +0.004 A 
ENDBRANCH  15  16
ENDBRANCH   1  15
TORSDOF 6
ENDMDL
MODEL 2
REMARK VINA RESULT:    -8.316      2.605      4.302
REMARK INTER + INTRA:         -11.766
REMARK INTER:                  -9.832
REMARK INTRA:                  -1.934
REMARK UNBOUND:                -0.533
REMARK  Name = ZINC000004762374
REMARK  6 active torsions:
REMARK  status: ('A' for Active; 'I' for Inactive)
REMARK    1  A    between atoms: C_2  and  CA_4
REMARK    2  A    between atoms: CA_4  and  CB_5
REMARK    3  A    between atoms: CA_4  and  N_12
REMARK    4  A    between atoms: CB_5  and  CG_6
REMARK    5  A    between atoms: N_12  and  C_13
REMARK    6  A    between atoms: C_13  and  C_14
REMARK                            x       y       z     vdW  Elec       q    Type
REMARK                         _______ _______ _______ _____ _____    ______ ____
ROOT
ATOM      1  CA  PHE A   1      -0.492   3.353 -24.632  0.00  0.00    +0.114 C 
ENDROOT
BRANCH   1   2
ATOM      2  N   PHE A   1      -0.816   2.351 -23.871  0.00  0.00    +0.237 N 
ATOM      3  H1  PHE A   1      -1.795   2.185 -24.105  0.00  0.00    +0.202 HD
ATOM      4  H2  PHE A   1      -0.153   1.602 -24.072  0.00  0.00    +0.202 HD
BRANCH   2   5
ATOM      5  C   UNK A   0      -0.838   2.495 -22.580  0.00  0.00    +0.166 C 
BRANCH   5   6
ATOM      6  C   UNK A   0      -1.928   2.882 -21.987  0.00  0.00    -0.003 A 
ATOM      7  C   UNK A   0      -1.932   3.971 -21.278  0.00  0.00    +0.009 A 
ATOM      8  C   UNK A   0      -3.022   4.359 -20.685  0.00  0.00    +0.000 A 
ATOM      9  C   UNK A   0      -4.109   3.656 -20.802  0.00  0.00    +0.000 A 
ATOM     10  C   UNK A   0      -4.106   2.566 -21.510  0.00  0.00    +0.000 A 
ATOM     11  C   UNK A   0      -3.015   2.179 -22.103  0.00  0.00    +0.009 A 
ENDBRANCH   5   6
ENDBRANCH   2   5
ENDBRANCH   1   2
BRANCH   1  13
ATOM     12  O   PHE A   1       0.529   5.226 -23.909  0.00  0.00    -0.544 OA
ATOM     13  C   PHE A   1       0.598   4.023 -24.397  0.00  0.00    +0.090 C 
ATOM     14  OXT PHE A   1       1.756   3.488 -24.649  0.00  0.00    -0.544 OA
ENDBRANCH   1  13
BRANCH   1  15
ATOM     15  CB  PHE A   1      -1.257   3.687 -25.629  0.00  0.00    +0.095 C 
BRANCH  15  16
ATOM     16  CG  PHE A   1      -2.546   3.750 -25.465  0.00  0.00    -0.042 A 
ATOM     17  CD2 PHE A   1      -3.318   2.881 -26.046  0.00  0.00    +0.004 A 
ATOM     18  CE2 PHE A   1      -4.606   2.943 -25.883  0.00  0.00    +0.000 A 
ATOM     19  CZ  PHE A   1      -5.122   3.875 -25.139  0.00  0.00    +0.000 A 
ATOM     20  CE1 PHE A   1      -4.350   4.745 -24.557  0.00  0.00    +0.000 A 
ATOM     21  CD1 PHE A   1      -3.061   4.682 -24.720  0.00  0.00    +0.004 A 
ENDBRANCH  15  16
ENDBRANCH   1  15
TORSDOF 6
ENDMDL
MODEL 3
REMARK VINA RESULT:    -8.224      3.432      5.960
REMARK INTER + INTRA:         -11.641
REMARK INTER:                 -10.811
REMARK INTRA:                  -0.830
REMARK UNBOUND:                -0.533
REMARK  Name = ZINC000004762374
REMARK  6 active torsions:
REMARK  status: ('A' for Active; 'I' for Inactive)
REMARK    1  A    between atoms: C_2  and  CA_4
REMARK    2  A    between atoms: CA_4  and  CB_5
REMARK    3  A    between atoms: CA_4  and  N_12
REMARK    4  A    between atoms: CB_5  and  CG_6
REMARK    5  A    between atoms: N_12  and  C_13
REMARK    6  A    between atoms: C_13  and  C_14
REMARK                            x       y       z     vdW  Elec       q    Type
REMARK                         _______ _______ _______ _____ _____    ______ ____
ROOT
ATOM      1  CA  PHE A   1      -2.693   3.534 -25.223  0.00  0.00    +0.114 C 
ENDROOT
BRANCH   1   2
ATOM      2  N   PHE A   1      -1.532   2.952 -25.179  0.00  0.00    +0.237 N 
ATOM      3  H1  PHE A   1      -1.466   2.633 -24.212  0.00  0.00    +0.202 HD
ATOM      4  H2  PHE A   1      -1.531   2.239 -25.909  0.00  0.00    +0.202 HD
BRANCH   2   5
ATOM      5  C   UNK A   0      -0.448   3.651 -25.337  0.00  0.00    +0.166 C 
BRANCH   5   6
ATOM      6  C   UNK A   0       0.534   3.527 -24.494  0.00  0.00    -0.003 A 
ATOM      7  C   UNK A   0       1.444   4.452 -24.416  0.00  0.00    +0.009 A 
ATOM      8  C   UNK A   0       2.427   4.329 -23.573  0.00  0.00    +0.000 A 
ATOM      9  C   UNK A   0       2.499   3.280 -22.809  0.00  0.00    +0.000 A 
ATOM     10  C   UNK A   0       1.589   2.355 -22.887  0.00  0.00    +0.000 A 
ATOM     11  C   UNK A   0       0.607   2.479 -23.730  0.00  0.00    +0.009 A 
ENDBRANCH   5   6
ENDBRANCH   2   5
ENDBRANCH   1   2
BRANCH   1  13
ATOM     12  O   PHE A   1      -4.723   3.000 -26.040  0.00  0.00    -0.544 OA
ATOM     13  C   PHE A   1      -3.482   3.334 -26.238  0.00  0.00    +0.090 C 
ATOM     14  OXT PHE A   1      -3.030   3.469 -27.449  0.00  0.00    -0.544 OA
ENDBRANCH   1  13
BRANCH   1  15
ATOM     15  CB  PHE A   1      -3.066   4.315 -24.253  0.00  0.00    +0.095 C 
BRANCH  15  16
ATOM     16  CG  PHE A   1      -3.284   3.823 -23.070  0.00  0.00    -0.042 A 
ATOM     17  CD2 PHE A   1      -4.453   3.335 -22.774  0.00  0.00    +0.004 A 
ATOM     18  CE2 PHE A   1      -4.673   2.843 -21.592  0.00  0.00    +0.000 A 
ATOM     19  CZ  PHE A   1      -3.723   2.838 -20.704  0.00  0.00    +0.000 A 
ATOM     20  CE1 PHE A   1      -2.554   3.325 -20.999  0.00  0.00    +0.000 A 
ATOM     21  CD1 PHE A   1      -2.335   3.818 -22.182  0.00  0.00    +0.004 A 
ENDBRANCH  15  16
ENDBRANCH   1  15
TORSDOF 6
ENDMDL
MODEL 4
REMARK VINA RESULT:    -8.175      2.524      4.525
REMARK INTER + INTRA:         -11.575
REMARK INTER:                  -9.939
REMARK INTRA:                  -1.636
REMARK UNBOUND:                -0.533
REMARK  Name = ZINC000004762374
REMARK  6 active torsions:
REMARK  status: ('A' for Active; 'I' for Inactive)
REMARK    1  A    between atoms: C_2  and  CA_4
REMARK    2  A    between atoms: CA_4  and  CB_5
REMARK    3  A    between atoms: CA_4  and  N_12
REMARK    4  A    between atoms: CB_5  and  CG_6
REMARK    5  A    between atoms: N_12  and  C_13
REMARK    6  A    between atoms: C_13  and  C_14
REMARK                            x       y       z     vdW  Elec       q    Type
REMARK                         _______ _______ _______ _____ _____    ______ ____
ROOT
ATOM      1  CA  PHE A   1       0.024   3.016 -23.416  0.00  0.00    +0.114 C 
ENDROOT
BRANCH   1   2
ATOM      2  N   PHE A   1      -0.636   2.705 -24.491  0.00  0.00    +0.237 N 
ATOM      3  H1  PHE A   1       0.087   2.350 -25.117  0.00  0.00    +0.202 HD
ATOM      4  H2  PHE A   1      -1.372   2.058 -24.209  0.00  0.00    +0.202 HD
BRANCH   2   5
ATOM      5  C   UNK A   0      -1.208   3.637 -25.196  0.00  0.00    +0.166 C 
BRANCH   5   6
ATOM      6  C   UNK A   0      -2.503   3.678 -25.289  0.00  0.00    -0.003 A 
ATOM      7  C   UNK A   0      -3.124   2.865 -26.090  0.00  0.00    +0.009 A 
ATOM      8  C   UNK A   0      -4.420   2.906 -26.185  0.00  0.00    +0.000 A 
ATOM      9  C   UNK A   0      -5.095   3.762 -25.477  0.00  0.00    +0.000 A 
ATOM     10  C   UNK A   0      -4.475   4.576 -24.675  0.00  0.00    +0.000 A 
ATOM     11  C   UNK A   0      -3.179   4.534 -24.582  0.00  0.00    +0.009 A 
ENDBRANCH   5   6
ENDBRANCH   2   5
ENDBRANCH   1   2
BRANCH   1  13
ATOM     12  O   PHE A   1       2.224   3.290 -23.817  0.00  0.00    -0.544 OA
ATOM     13  C   PHE A   1       1.068   3.789 -23.494  0.00  0.00    +0.090 C 
ATOM     14  OXT PHE A   1       0.953   5.061 -23.250  0.00  0.00    -0.544 OA
ENDBRANCH   1  13
BRANCH   1  15
ATOM     15  CB  PHE A   1      -0.358   2.555 -22.263  0.00  0.00    +0.095 C 
BRANCH  15  16
ATOM     16  CG  PHE A   1      -1.527   2.872 -21.791  0.00  0.00    -0.042 A 
ATOM     17  CD2 PHE A   1      -2.488   1.997 -21.792  0.00  0.00    +0.004 A 
ATOM     18  CE2 PHE A   1      -3.658   2.313 -21.321  0.00  0.00    +0.000 A 
ATOM     19  CZ  PHE A   1      -3.866   3.507 -20.848  0.00  0.00    +0.000 A 
ATOM     20  CE1 PHE A   1      -2.905   4.383 -20.847  0.00  0.00    +0.000 A 
ATOM     21  CD1 PHE A   1      -1.735   4.066 -21.319  0.00  0.00    +0.004 A 
ENDBRANCH  15  16
ENDBRANCH   1  15
TORSDOF 6
ENDMDL
MODEL 5
REMARK VINA RESULT:    -7.988      2.129      5.048
REMARK INTER + INTRA:         -11.322
REMARK INTER:                 -10.682
REMARK INTRA:                  -0.640
REMARK UNBOUND:                -0.533
REMARK  Name = ZINC000004762374
REMARK  6 active torsions:
REMARK  status: ('A' for Active; 'I' for Inactive)
REMARK    1  A    between atoms: C_2  and  CA_4
REMARK    2  A    between atoms: CA_4  and  CB_5
REMARK    3  A    between atoms: CA_4  and  N_12
REMARK    4  A    between atoms: CB_5  and  CG_6
REMARK    5  A    between atoms: N_12  and  C_13
REMARK    6  A    between atoms: C_13  and  C_14
REMARK                            x       y       z     vdW  Elec       q    Type
REMARK                         _______ _______ _______ _____ _____    ______ ____
ROOT
ATOM      1  CA  PHE A   1      -0.876   2.815 -23.158  0.00  0.00    +0.114 C 
ENDROOT
BRANCH   1   2
ATOM      2  N   PHE A   1      -0.368   2.607 -24.336  0.00  0.00    +0.237 N 
ATOM      3  H1  PHE A   1       0.137   1.728 -24.222  0.00  0.00    +0.202 HD
ATOM      4  H2  PHE A   1      -1.144   2.619 -24.998  0.00  0.00    +0.202 HD
BRANCH   2   5
ATOM      5  C   UNK A   0       0.538   3.412 -24.806  0.00  0.00    +0.166 C 
BRANCH   5   6
ATOM      6  C   UNK A   0       1.772   3.303 -24.414  0.00  0.00    -0.003 A 
ATOM      7  C   UNK A   0       2.337   4.276 -23.764  0.00  0.00    +0.009 A 
ATOM      8  C   UNK A   0       3.571   4.168 -23.371  0.00  0.00    +0.000 A 
ATOM      9  C   UNK A   0       4.241   3.084 -23.629  0.00  0.00    +0.000 A 
ATOM     10  C   UNK A   0       3.677   2.110 -24.279  0.00  0.00    +0.000 A 
ATOM     11  C   UNK A   0       2.442   2.220 -24.671  0.00  0.00    +0.009 A 
ENDBRANCH   5   6
ENDBRANCH   2   5
ENDBRANCH   1   2
BRANCH   1  13
ATOM     12  O   PHE A   1      -0.103   0.820 -22.456  0.00  0.00    -0.544 OA
ATOM     13  C   PHE A   1      -0.659   1.966 -22.197  0.00  0.00    +0.090 C 
ATOM     14  OXT PHE A   1      -0.998   2.264 -20.978  0.00  0.00    -0.544 OA
ENDBRANCH   1  13
BRANCH   1  15
ATOM     15  CB  PHE A   1      -1.600   3.872 -22.941  0.00  0.00    +0.095 C 
BRANCH  15  16
ATOM     16  CG  PHE A   1      -2.807   3.942 -23.420  0.00  0.00    -0.042 A 
ATOM     17  CD2 PHE A   1      -3.011   4.464 -24.593  0.00  0.00    +0.004 A 
ATOM     18  CE2 PHE A   1      -4.217   4.535 -25.073  0.00  0.00    +0.000 A 
ATOM     19  CZ  PHE A   1      -5.219   4.083 -24.379  0.00  0.00    +0.000 A 
ATOM     20  CE1 PHE A   1      -5.016   3.561 -23.206  0.00  0.00    +0.000 A 
ATOM     21  CD1 PHE A   1      -3.809   3.490 -22.726  0.00  0.00    +0.004 A 
ENDBRANCH  15  16
ENDBRANCH   1  15
TORSDOF 6
ENDMDL
MODEL 6
REMARK VINA RESULT:    -7.807      1.843      2.492
REMARK INTER + INTRA:         -11.077
REMARK INTER:                 -10.477
REMARK INTRA:                  -0.601
REMARK UNBOUND:                -0.533
REMARK  Name = ZINC000004762374
REMARK  6 active torsions:
REMARK  status: ('A' for Active; 'I' for Inactive)
REMARK    1  A    between atoms: C_2  and  CA_4
REMARK    2  A    between atoms: CA_4  and  CB_5
REMARK    3  A    between atoms: CA_4  and  N_12
REMARK    4  A    between atoms: CB_5  and  CG_6
REMARK    5  A    between atoms: N_12  and  C_13
REMARK    6  A    between atoms: C_13  and  C_14
REMARK                            x       y       z     vdW  Elec       q    Type
REMARK                         _______ _______ _______ _____ _____    ______ ____
ROOT
ATOM      1  CA  PHE A   1       0.504   2.272 -22.778  0.00  0.00    +0.114 C 
ENDROOT
BRANCH   1   2
ATOM      2  N   PHE A   1      -0.716   2.704 -22.664  0.00  0.00    +0.237 N 
ATOM      3  H1  PHE A   1      -1.135   2.054 -21.998  0.00  0.00    +0.202 HD
ATOM      4  H2  PHE A   1      -0.658   3.685 -22.388  0.00  0.00    +0.202 HD
BRANCH   2   5
ATOM      5  C   UNK A   0      -1.524   2.649 -23.681  0.00  0.00    +0.166 C 
BRANCH   5   6
ATOM      6  C   UNK A   0      -2.762   3.021 -23.550  0.00  0.00    -0.003 A 
ATOM      7  C   UNK A   0      -3.366   2.879 -22.407  0.00  0.00    +0.009 A 
ATOM      8  C   UNK A   0      -4.604   3.251 -22.275  0.00  0.00    +0.000 A 
ATOM      9  C   UNK A   0      -5.240   3.764 -23.286  0.00  0.00    +0.000 A 
ATOM     10  C   UNK A   0      -4.637   3.906 -24.429  0.00  0.00    +0.000 A 
ATOM     11  C   UNK A   0      -3.398   3.534 -24.560  0.00  0.00    +0.009 A 
ENDBRANCH   5   6
ENDBRANCH   2   5
ENDBRANCH   1   2
BRANCH   1  13
ATOM     12  O   PHE A   1       0.717   1.503 -20.672  0.00  0.00    -0.544 OA
ATOM     13  C   PHE A   1       0.960   1.384 -21.943  0.00  0.00    +0.090 C 
ATOM     14  OXT PHE A   1       1.658   0.379 -22.382  0.00  0.00    -0.544 OA
ENDBRANCH   1  13
BRANCH   1  15
ATOM     15  CB  PHE A   1       1.268   2.727 -23.725  0.00  0.00    +0.095 C 
BRANCH  15  16
ATOM     16  CG  PHE A   1       2.194   3.598 -23.451  0.00  0.00    -0.042 A 
ATOM     17  CD2 PHE A   1       3.439   3.227 -23.390  0.00  0.00    +0.004 A 
ATOM     18  CE2 PHE A   1       4.365   4.096 -23.116  0.00  0.00    +0.000 A 
ATOM     19  CZ  PHE A   1       4.047   5.338 -22.902  0.00  0.00    +0.000 A 
ATOM     20  CE1 PHE A   1       2.803   5.711 -22.962  0.00  0.00    +0.000 A 
ATOM     21  CD1 PHE A   1       1.876   4.840 -23.237  0.00  0.00    +0.004 A 
ENDBRANCH  15  16
ENDBRANCH   1  15
TORSDOF 6
ENDMDL
MODEL 7
REMARK VINA RESULT:    -7.575      2.452      3.919
REMARK INTER + INTRA:         -10.764
REMARK INTER:                 -10.000
REMARK INTRA:                  -0.764
REMARK UNBOUND:                -0.533
REMARK  Name = ZINC000004762374
REMARK  6 active torsions:
REMARK  status: ('A' for Active; 'I' for Inactive)
REMARK    1  A    between atoms: C_2  and  CA_4
REMARK    2  A    between atoms: CA_4  and  CB_5
REMARK    3  A    between atoms: CA_4  and  N_12
REMARK    4  A    between atoms: CB_5  and  CG_6
REMARK    5  A    between atoms: N_12  and  C_13
REMARK    6  A    between atoms: C_13  and  C_14
REMARK                            x       y       z     vdW  Elec       q    Type
REMARK                         _______ _______ _______ _____ _____    ______ ____
ROOT
ATOM      1  CA  PHE A   1       0.325   3.602 -23.753  0.00  0.00    +0.114 C 
ENDROOT
BRANCH   1   2
ATOM      2  N   PHE A   1      -0.660   4.061 -23.041  0.00  0.00    +0.237 N 
ATOM      3  H1  PHE A   1      -0.743   3.379 -22.287  0.00  0.00    +0.202 HD
ATOM      4  H2  PHE A   1      -0.417   5.018 -22.783  0.00  0.00    +0.202 HD
BRANCH   2   5
ATOM      5  C   UNK A   0      -1.860   4.100 -23.539  0.00  0.00    +0.166 C 
BRANCH   5   6
ATOM      6  C   UNK A   0      -2.873   3.703 -22.829  0.00  0.00    -0.003 A 
ATOM      7  C   UNK A   0      -4.075   3.766 -23.318  0.00  0.00    +0.009 A 
ATOM      8  C   UNK A   0      -5.089   3.368 -22.608  0.00  0.00    +0.000 A 
ATOM      9  C   UNK A   0      -4.899   2.909 -21.407  0.00  0.00    +0.000 A 
ATOM     10  C   UNK A   0      -3.697   2.846 -20.916  0.00  0.00    +0.000 A 
ATOM     11  C   UNK A   0      -2.684   3.244 -21.628  0.00  0.00    +0.009 A 
ENDBRANCH   5   6
ENDBRANCH   2   5
ENDBRANCH   1   2
BRANCH   1  13
ATOM     12  O   PHE A   1       1.591   5.457 -23.926  0.00  0.00    -0.544 OA
ATOM     13  C   PHE A   1       1.040   4.415 -24.474  0.00  0.00    +0.090 C 
ATOM     14  OXT PHE A   1       1.204   4.184 -25.743  0.00  0.00    -0.544 OA
ENDBRANCH   1  13
BRANCH   1  15
ATOM     15  CB  PHE A   1       0.596   2.331 -23.744  0.00  0.00    +0.095 C 
BRANCH  15  16
ATOM     16  CG  PHE A   1       1.597   1.885 -23.044  0.00  0.00    -0.042 A 
ATOM     17  CD2 PHE A   1       1.501   1.806 -21.750  0.00  0.00    +0.004 A 
ATOM     18  CE2 PHE A   1       2.500   1.360 -21.048  0.00  0.00    +0.000 A 
ATOM     19  CZ  PHE A   1       3.597   0.993 -21.642  0.00  0.00    +0.000 A 
ATOM     20  CE1 PHE A   1       3.694   1.071 -22.936  0.00  0.00    +0.000 A 
ATOM     21  CD1 PHE A   1       2.693   1.517 -23.637  0.00  0.00    +0.004 A 
ENDBRANCH  15  16
ENDBRANCH   1  15
TORSDOF 6
ENDMDL
MODEL 8
REMARK VINA RESULT:    -7.245      1.907      3.493
REMARK INTER + INTRA:         -10.319
REMARK INTER:                  -9.818
REMARK INTRA:                  -0.502
REMARK UNBOUND:                -0.533
REMARK  Name = ZINC000004762374
REMARK  6 active torsions:
REMARK  status: ('A' for Active; 'I' for Inactive)
REMARK    1  A    between atoms: C_2  and  CA_4
REMARK    2  A    between atoms: CA_4  and  CB_5
REMARK    3  A    between atoms: CA_4  and  N_12
REMARK    4  A    between atoms: CB_5  and  CG_6
REMARK    5  A    between atoms: N_12  and  C_13
REMARK    6  A    between atoms: C_13  and  C_14
REMARK                            x       y       z     vdW  Elec       q    Type
REMARK                         _______ _______ _______ _____ _____    ______ ____
ROOT
ATOM      1  CA  PHE A   1       1.400   2.675 -23.641  0.00  0.00    +0.114 C 
ENDROOT
BRANCH   1   2
ATOM      2  N   PHE A   1       0.171   2.503 -23.253  0.00  0.00    +0.237 N 
ATOM      3  H1  PHE A   1      -0.315   2.259 -24.116  0.00  0.00    +0.202 HD
ATOM      4  H2  PHE A   1       0.191   1.802 -22.512  0.00  0.00    +0.202 HD
BRANCH   2   5
ATOM      5  C   UNK A   0      -0.515   3.509 -22.799  0.00  0.00    +0.166 C 
BRANCH   5   6
ATOM      6  C   UNK A   0      -1.773   3.361 -22.510  0.00  0.00    -0.003 A 
ATOM      7  C   UNK A   0      -2.126   2.958 -21.326  0.00  0.00    +0.009 A 
ATOM      8  C   UNK A   0      -3.384   2.810 -21.036  0.00  0.00    +0.000 A 
ATOM      9  C   UNK A   0      -4.291   3.065 -21.933  0.00  0.00    +0.000 A 
ATOM     10  C   UNK A   0      -3.939   3.468 -23.117  0.00  0.00    +0.000 A 
ATOM     11  C   UNK A   0      -2.680   3.616 -23.406  0.00  0.00    +0.009 A 
ENDBRANCH   5   6
ENDBRANCH   2   5
ENDBRANCH   1   2
BRANCH   1  13
ATOM     12  O   PHE A   1       2.259   1.240 -25.149  0.00  0.00    -0.544 OA
ATOM     13  C   PHE A   1       1.741   2.398 -24.865  0.00  0.00    +0.090 C 
ATOM     14  OXT PHE A   1       1.562   3.280 -25.804  0.00  0.00    -0.544 OA
ENDBRANCH   1  13
BRANCH   1  15
ATOM     15  CB  PHE A   1       2.288   3.124 -22.804  0.00  0.00    +0.095 C 
BRANCH  15  16
ATOM     16  CG  PHE A   1       3.134   2.304 -22.254  0.00  0.00    -0.042 A 
ATOM     17  CD2 PHE A   1       2.708   1.358 -21.470  0.00  0.00    +0.004 A 
ATOM     18  CE2 PHE A   1       3.553   0.539 -20.920  0.00  0.00    +0.000 A 
ATOM     19  CZ  PHE A   1       4.826   0.665 -21.153  0.00  0.00    +0.000 A 
ATOM     20  CE1 PHE A   1       5.253   1.610 -21.937  0.00  0.00    +0.000 A 
ATOM     21  CD1 PHE A   1       4.407   2.430 -22.487  0.00  0.00    +0.004 A 
ENDBRANCH  15  16
ENDBRANCH   1  15
TORSDOF 6
ENDMDL
MODEL 9
REMARK VINA RESULT:    -6.858      2.176      5.180
REMARK INTER + INTRA:          -9.796
REMARK INTER:                  -9.263
REMARK INTRA:                  -0.533
REMARK UNBOUND:                -0.533
REMARK  Name = ZINC000004762374
REMARK  6 active torsions:
REMARK  status: ('A' for Active; 'I' for Inactive)
REMARK    1  A    between atoms: C_2  and  CA_4
REMARK    2  A    between atoms: CA_4  and  CB_5
REMARK    3  A    between atoms: CA_4  and  N_12
REMARK    4  A    between atoms: CB_5  and  CG_6
REMARK    5  A    between atoms: N_12  and  C_13
REMARK    6  A    between atoms: C_13  and  C_14
REMARK                            x       y       z     vdW  Elec       q    Type
REMARK                         _______ _______ _______ _____ _____    ______ ____
ROOT
ATOM      1  CA  PHE A   1       0.886   3.609 -24.113  0.00  0.00    +0.114 C 
ENDROOT
BRANCH   1   2
ATOM      2  N   PHE A   1       1.395   2.864 -23.178  0.00  0.00    +0.237 N 
ATOM      3  H1  PHE A   1       0.713   2.936 -22.422  0.00  0.00    +0.202 HD
ATOM      4  H2  PHE A   1       1.547   1.941 -23.586  0.00  0.00    +0.202 HD
BRANCH   2   5
ATOM      5  C   UNK A   0       2.511   3.208 -22.606  0.00  0.00    +0.166 C 
BRANCH   5   6
ATOM      6  C   UNK A   0       3.301   2.298 -22.122  0.00  0.00    -0.003 A 
ATOM      7  C   UNK A   0       2.824   1.363 -21.355  0.00  0.00    +0.009 A 
ATOM      8  C   UNK A   0       3.614   0.451 -20.870  0.00  0.00    +0.000 A 
ATOM      9  C   UNK A   0       4.882   0.475 -21.152  0.00  0.00    +0.000 A 
ATOM     10  C   UNK A   0       5.361   1.410 -21.919  0.00  0.00    +0.000 A 
ATOM     11  C   UNK A   0       4.570   2.321 -22.403  0.00  0.00    +0.009 A 
ENDBRANCH   5   6
ENDBRANCH   2   5
ENDBRANCH   1   2
BRANCH   1  13
ATOM     12  O   PHE A   1       1.207   4.477 -26.166  0.00  0.00    -0.544 OA
ATOM     13  C   PHE A   1       1.286   3.473 -25.343  0.00  0.00    +0.090 C 
ATOM     14  OXT PHE A   1       1.763   2.334 -25.748  0.00  0.00    -0.544 OA
ENDBRANCH   1  13
BRANCH   1  15
ATOM     15  CB  PHE A   1      -0.022   4.491 -23.818  0.00  0.00    +0.095 C 
BRANCH  15  16
ATOM     16  CG  PHE A   1      -1.227   4.106 -23.515  0.00  0.00    -0.042 A 
ATOM     17  CD2 PHE A   1      -2.107   3.924 -24.454  0.00  0.00    +0.004 A 
ATOM     18  CE2 PHE A   1      -3.312   3.540 -24.152  0.00  0.00    +0.000 A 
ATOM     19  CZ  PHE A   1      -3.636   3.336 -22.910  0.00  0.00    +0.000 A 
ATOM     20  CE1 PHE A   1      -2.756   3.517 -21.970  0.00  0.00    +0.000 A 
ATOM     21  CD1 PHE A   1      -1.551   3.903 -22.272  0.00  0.00    +0.004 A 
ENDBRANCH  15  16
ENDBRANCH   1  15
TORSDOF 6
ENDMDL
