MODEL 1
REMARK VINA RESULT:    -7.679      0.000      0.000
REMARK INTER + INTRA:          -9.294
REMARK INTER:                  -9.024
REMARK INTRA:                  -0.270
REMARK UNBOUND:                -0.268
REMARK  Name = ZINC000000334890
REMARK  4 active torsions:
REMARK  status: ('A' for Active; 'I' for Inactive)
REMARK    1  A    between atoms: C_1  and  C_2
REMARK    2  A    between atoms: C_2  and  O_4
REMARK    3  A    between atoms: O_4  and  C_5
REMARK    4  A    between atoms: C_11  and  C_12
REMARK                            x       y       z     vdW  Elec       q    Type
REMARK                         _______ _______ _______ _____ _____    ______ ____
ROOT
ATOM      1  C   UNL     1       0.867   2.024 -22.299  0.00  0.00    +0.135 A 
ATOM      2  C   UNL     1      -0.070   1.764 -21.436  0.00  0.00    +0.047 A 
ATOM      3  C   UNL     1      -1.303   2.077 -21.702  0.00  0.00    +0.019 A 
ATOM      4  C   UNL     1      -1.599   2.649 -22.831  0.00  0.00    +0.065 A 
ATOM      5  C   UNL     1      -2.833   2.963 -23.098  0.00  0.00    +0.203 A 
ATOM      6  C   UNL     1      -3.129   3.535 -24.227  0.00  0.00    +0.096 A 
ATOM      7  C   UNL     1      -2.191   3.794 -25.090  0.00  0.00    +0.210 A 
ATOM      8  O   UNL     1      -0.959   3.481 -24.823  0.00  0.00    -0.462 OA
ATOM      9  O   UNL     1      -3.770   2.703 -22.234  0.00  0.00    -0.286 OA
ATOM     10  C   UNL     1      -0.662   2.909 -23.694  0.00  0.00    +0.142 A 
ATOM     11  C   UNL     1       0.571   2.596 -23.428  0.00  0.00    +0.093 A 
ENDROOT
BRANCH   6  12
ATOM     12  C   UNL     1      -4.362   3.848 -24.493  0.00  0.00    +0.265 C 
ATOM     13  O   UNL     1      -4.630   4.949 -25.131  0.00  0.00    -0.295 OA
ENDBRANCH   6  12
BRANCH   1  14
ATOM     14  O   UNL     1       2.101   1.710 -22.032  0.00  0.00    -0.426 OA
BRANCH  14  16
ATOM     15  C   UNL     1       3.807   1.210 -23.415  0.00  0.00    +0.136 C 
ATOM     16  C   UNL     1       2.730   0.852 -22.779  0.00  0.00    +0.309 C 
ATOM     17  O   UNL     1       2.282  -0.363 -22.891  0.00  0.00    -0.251 OA
ENDBRANCH  14  16
ENDBRANCH   1  14
TORSDOF 3
ENDMDL
MODEL 2
REMARK VINA RESULT:    -7.632      1.974      5.732
REMARK INTER + INTRA:          -9.239
REMARK INTER:                  -8.976
REMARK INTRA:                  -0.263
REMARK UNBOUND:                -0.268
REMARK  Name = ZINC000000334890
REMARK  4 active torsions:
REMARK  status: ('A' for Active; 'I' for Inactive)
REMARK    1  A    between atoms: C_1  and  C_2
REMARK    2  A    between atoms: C_2  and  O_4
REMARK    3  A    between atoms: O_4  and  C_5
REMARK    4  A    between atoms: C_11  and  C_12
REMARK                            x       y       z     vdW  Elec       q    Type
REMARK                         _______ _______ _______ _____ _____    ______ ____
ROOT
ATOM      1  C   UNL     1      -2.117   3.185 -23.311  0.00  0.00    +0.135 A 
ATOM      2  C   UNL     1      -1.833   4.446 -23.444  0.00  0.00    +0.047 A 
ATOM      3  C   UNL     1      -0.591   4.830 -23.496  0.00  0.00    +0.019 A 
ATOM      4  C   UNL     1       0.364   3.952 -23.416  0.00  0.00    +0.065 A 
ATOM      5  C   UNL     1       1.606   4.335 -23.469  0.00  0.00    +0.203 A 
ATOM      6  C   UNL     1       2.561   3.458 -23.389  0.00  0.00    +0.096 A 
ATOM      7  C   UNL     1       2.275   2.196 -23.256  0.00  0.00    +0.210 A 
ATOM      8  O   UNL     1       1.035   1.813 -23.204  0.00  0.00    -0.462 OA
ATOM      9  O   UNL     1       1.890   5.597 -23.601  0.00  0.00    -0.286 OA
ATOM     10  C   UNL     1       0.079   2.691 -23.284  0.00  0.00    +0.142 A 
ATOM     11  C   UNL     1      -1.162   2.307 -23.231  0.00  0.00    +0.093 A 
ENDROOT
BRANCH   6  12
ATOM     12  C   UNL     1       3.802   3.841 -23.441  0.00  0.00    +0.265 C 
ATOM     13  O   UNL     1       4.549   3.773 -22.379  0.00  0.00    -0.295 OA
ENDBRANCH   6  12
BRANCH   1  14
ATOM     14  O   UNL     1      -3.359   2.801 -23.259  0.00  0.00    -0.426 OA
BRANCH  14  16
ATOM     15  C   UNL     1      -5.270   3.415 -22.237  0.00  0.00    +0.136 C 
ATOM     16  C   UNL     1      -4.048   2.975 -22.170  0.00  0.00    +0.309 C 
ATOM     17  O   UNL     1      -3.515   2.709 -21.015  0.00  0.00    -0.251 OA
ENDBRANCH  14  16
ENDBRANCH   1  14
TORSDOF 3
ENDMDL
MODEL 3
REMARK VINA RESULT:    -7.493      1.854      5.526
REMARK INTER + INTRA:          -9.075
REMARK INTER:                  -8.813
REMARK INTRA:                  -0.262
REMARK UNBOUND:                -0.268
REMARK  Name = ZINC000000334890
REMARK  4 active torsions:
REMARK  status: ('A' for Active; 'I' for Inactive)
REMARK    1  A    between atoms: C_1  and  C_2
REMARK    2  A    between atoms: C_2  and  O_4
REMARK    3  A    between atoms: O_4  and  C_5
REMARK    4  A    between atoms: C_11  and  C_12
REMARK                            x       y       z     vdW  Elec       q    Type
REMARK                         _______ _______ _______ _____ _____    ______ ____
ROOT
ATOM      1  C   UNL     1      -2.616   3.501 -21.856  0.00  0.00    +0.135 A 
ATOM      2  C   UNL     1      -2.198   2.289 -21.643  0.00  0.00    +0.047 A 
ATOM      3  C   UNL     1      -0.998   1.943 -22.004  0.00  0.00    +0.019 A 
ATOM      4  C   UNL     1      -0.217   2.809 -22.578  0.00  0.00    +0.065 A 
ATOM      5  C   UNL     1       0.984   2.463 -22.939  0.00  0.00    +0.203 A 
ATOM      6  C   UNL     1       1.765   3.329 -23.513  0.00  0.00    +0.096 A 
ATOM      7  C   UNL     1       1.346   4.542 -23.727  0.00  0.00    +0.210 A 
ATOM      8  O   UNL     1       0.146   4.887 -23.366  0.00  0.00    -0.462 OA
ATOM      9  O   UNL     1       1.402   1.250 -22.726  0.00  0.00    -0.286 OA
ATOM     10  C   UNL     1      -0.635   4.021 -22.791  0.00  0.00    +0.142 A 
ATOM     11  C   UNL     1      -1.835   4.367 -22.430  0.00  0.00    +0.093 A 
ENDROOT
BRANCH   6  12
ATOM     12  C   UNL     1       2.964   2.983 -23.874  0.00  0.00    +0.265 C 
ATOM     13  O   UNL     1       3.998   3.521 -23.298  0.00  0.00    -0.295 OA
ENDBRANCH   6  12
BRANCH   1  14
ATOM     14  O   UNL     1      -3.817   3.848 -21.495  0.00  0.00    -0.426 OA
BRANCH  14  16
ATOM     15  C   UNL     1      -5.145   3.721 -23.309  0.00  0.00    +0.136 C 
ATOM     16  C   UNL     1      -4.849   3.341 -22.101  0.00  0.00    +0.309 C 
ATOM     17  O   UNL     1      -5.586   2.455 -21.499  0.00  0.00    -0.251 OA
ENDBRANCH  14  16
ENDBRANCH   1  14
TORSDOF 3
ENDMDL
MODEL 4
REMARK VINA RESULT:    -7.406      1.174      2.154
REMARK INTER + INTRA:          -8.973
REMARK INTER:                  -8.708
REMARK INTRA:                  -0.265
REMARK UNBOUND:                -0.268
REMARK  Name = ZINC000000334890
REMARK  4 active torsions:
REMARK  status: ('A' for Active; 'I' for Inactive)
REMARK    1  A    between atoms: C_1  and  C_2
REMARK    2  A    between atoms: C_2  and  O_4
REMARK    3  A    between atoms: O_4  and  C_5
REMARK    4  A    between atoms: C_11  and  C_12
REMARK                            x       y       z     vdW  Elec       q    Type
REMARK                         _______ _______ _______ _____ _____    ______ ____
ROOT
ATOM      1  C   UNL     1       1.076   1.962 -21.993  0.00  0.00    +0.135 A 
ATOM      2  C   UNL     1       1.082   2.736 -23.037  0.00  0.00    +0.047 A 
ATOM      3  C   UNL     1      -0.032   3.244 -23.476  0.00  0.00    +0.019 A 
ATOM      4  C   UNL     1      -1.151   2.977 -22.870  0.00  0.00    +0.065 A 
ATOM      5  C   UNL     1      -2.265   3.485 -23.309  0.00  0.00    +0.203 A 
ATOM      6  C   UNL     1      -3.383   3.218 -22.704  0.00  0.00    +0.096 A 
ATOM      7  C   UNL     1      -3.389   2.444 -21.658  0.00  0.00    +0.210 A 
ATOM      8  O   UNL     1      -2.276   1.937 -21.220  0.00  0.00    -0.462 OA
ATOM      9  O   UNL     1      -2.258   4.258 -24.354  0.00  0.00    -0.286 OA
ATOM     10  C   UNL     1      -1.156   2.203 -21.826  0.00  0.00    +0.142 A 
ATOM     11  C   UNL     1      -0.043   1.696 -21.387  0.00  0.00    +0.093 A 
ENDROOT
BRANCH   6  12
ATOM     12  C   UNL     1      -4.497   3.725 -23.142  0.00  0.00    +0.265 C 
ATOM     13  O   UNL     1      -5.622   3.421 -22.565  0.00  0.00    -0.295 OA
ENDBRANCH   6  12
BRANCH   1  14
ATOM     14  O   UNL     1       2.190   1.455 -21.554  0.00  0.00    -0.426 OA
BRANCH  14  16
ATOM     15  C   UNL     1       4.165   0.925 -22.497  0.00  0.00    +0.136 C 
ATOM     16  C   UNL     1       2.899   0.683 -22.321  0.00  0.00    +0.309 C 
ATOM     17  O   UNL     1       2.344  -0.332 -22.914  0.00  0.00    -0.251 OA
ENDBRANCH  14  16
ENDBRANCH   1  14
TORSDOF 3
ENDMDL
MODEL 5
REMARK VINA RESULT:    -7.243      1.709      5.935
REMARK INTER + INTRA:          -8.781
REMARK INTER:                  -8.608
REMARK INTRA:                  -0.174
REMARK UNBOUND:                -0.268
REMARK  Name = ZINC000000334890
REMARK  4 active torsions:
REMARK  status: ('A' for Active; 'I' for Inactive)
REMARK    1  A    between atoms: C_1  and  C_2
REMARK    2  A    between atoms: C_2  and  O_4
REMARK    3  A    between atoms: O_4  and  C_5
REMARK    4  A    between atoms: C_11  and  C_12
REMARK                            x       y       z     vdW  Elec       q    Type
REMARK                         _______ _______ _______ _____ _____    ______ ____
ROOT
ATOM      1  C   UNL     1      -1.965   3.421 -23.966  0.00  0.00    +0.135 A 
ATOM      2  C   UNL     1      -1.345   4.559 -24.066  0.00  0.00    +0.047 A 
ATOM      3  C   UNL     1      -0.084   4.641 -23.756  0.00  0.00    +0.019 A 
ATOM      4  C   UNL     1       0.554   3.585 -23.347  0.00  0.00    +0.065 A 
ATOM      5  C   UNL     1       1.815   3.667 -23.037  0.00  0.00    +0.203 A 
ATOM      6  C   UNL     1       2.453   2.611 -22.628  0.00  0.00    +0.096 A 
ATOM      7  C   UNL     1       1.832   1.473 -22.529  0.00  0.00    +0.210 A 
ATOM      8  O   UNL     1       0.572   1.391 -22.838  0.00  0.00    -0.462 OA
ATOM      9  O   UNL     1       2.435   4.805 -23.136  0.00  0.00    -0.286 OA
ATOM     10  C   UNL     1      -0.067   2.447 -23.248  0.00  0.00    +0.142 A 
ATOM     11  C   UNL     1      -1.327   2.365 -23.557  0.00  0.00    +0.093 A 
ENDROOT
BRANCH   6  12
ATOM     12  C   UNL     1       3.712   2.693 -22.318  0.00  0.00    +0.265 C 
ATOM     13  O   UNL     1       4.086   2.580 -21.078  0.00  0.00    -0.295 OA
ENDBRANCH   6  12
BRANCH   1  14
ATOM     14  O   UNL     1      -3.226   3.339 -24.276  0.00  0.00    -0.426 OA
BRANCH  14  16
ATOM     15  C   UNL     1      -3.533   3.311 -26.507  0.00  0.00    +0.136 C 
ATOM     16  C   UNL     1      -3.667   3.907 -25.359  0.00  0.00    +0.309 C 
ATOM     17  O   UNL     1      -4.242   5.071 -25.294  0.00  0.00    -0.251 OA
ENDBRANCH  14  16
ENDBRANCH   1  14
TORSDOF 3
ENDMDL
MODEL 6
REMARK VINA RESULT:    -7.183      1.457      5.921
REMARK INTER + INTRA:          -8.711
REMARK INTER:                  -8.612
REMARK INTRA:                  -0.099
REMARK UNBOUND:                -0.268
REMARK  Name = ZINC000000334890
REMARK  4 active torsions:
REMARK  status: ('A' for Active; 'I' for Inactive)
REMARK    1  A    between atoms: C_1  and  C_2
REMARK    2  A    between atoms: C_2  and  O_4
REMARK    3  A    between atoms: O_4  and  C_5
REMARK    4  A    between atoms: C_11  and  C_12
REMARK                            x       y       z     vdW  Elec       q    Type
REMARK                         _______ _______ _______ _____ _____    ______ ____
ROOT
ATOM      1  C   UNL     1      -2.882   3.674 -22.324  0.00  0.00    +0.135 A 
ATOM      2  C   UNL     1      -2.371   3.910 -23.496  0.00  0.00    +0.047 A 
ATOM      3  C   UNL     1      -1.190   3.455 -23.792  0.00  0.00    +0.019 A 
ATOM      4  C   UNL     1      -0.520   2.766 -22.918  0.00  0.00    +0.065 A 
ATOM      5  C   UNL     1       0.662   2.311 -23.214  0.00  0.00    +0.203 A 
ATOM      6  C   UNL     1       1.331   1.621 -22.339  0.00  0.00    +0.096 A 
ATOM      7  C   UNL     1       0.819   1.386 -21.167  0.00  0.00    +0.210 A 
ATOM      8  O   UNL     1      -0.361   1.840 -20.871  0.00  0.00    -0.462 OA
ATOM      9  O   UNL     1       1.173   2.547 -24.386  0.00  0.00    -0.286 OA
ATOM     10  C   UNL     1      -1.032   2.530 -21.746  0.00  0.00    +0.142 A 
ATOM     11  C   UNL     1      -2.213   2.985 -21.449  0.00  0.00    +0.093 A 
ENDROOT
BRANCH   6  12
ATOM     12  C   UNL     1       2.512   1.167 -22.635  0.00  0.00    +0.265 C 
ATOM     13  O   UNL     1       2.676  -0.096 -22.899  0.00  0.00    -0.295 OA
ENDBRANCH   6  12
BRANCH   1  14
ATOM     14  O   UNL     1      -4.064   4.129 -22.027  0.00  0.00    -0.426 OA
BRANCH  14  16
ATOM     15  C   UNL     1      -5.565   3.772 -23.668  0.00  0.00    +0.136 C 
ATOM     16  C   UNL     1      -5.124   3.521 -22.470  0.00  0.00    +0.309 C 
ATOM     17  O   UNL     1      -5.745   2.663 -21.716  0.00  0.00    -0.251 OA
ENDBRANCH  14  16
ENDBRANCH   1  14
TORSDOF 3
ENDMDL
MODEL 7
REMARK VINA RESULT:    -6.988      1.661      2.084
REMARK INTER + INTRA:          -8.481
REMARK INTER:                  -8.192
REMARK INTRA:                  -0.290
REMARK UNBOUND:                -0.268
REMARK  Name = ZINC000000334890
REMARK  4 active torsions:
REMARK  status: ('A' for Active; 'I' for Inactive)
REMARK    1  A    between atoms: C_1  and  C_2
REMARK    2  A    between atoms: C_2  and  O_4
REMARK    3  A    between atoms: O_4  and  C_5
REMARK    4  A    between atoms: C_11  and  C_12
REMARK                            x       y       z     vdW  Elec       q    Type
REMARK                         _______ _______ _______ _____ _____    ______ ____
ROOT
ATOM      1  C   UNL     1       1.380   3.034 -23.594  0.00  0.00    +0.135 A 
ATOM      2  C   UNL     1       1.064   2.341 -22.541  0.00  0.00    +0.047 A 
ATOM      3  C   UNL     1      -0.179   2.263 -22.164  0.00  0.00    +0.019 A 
ATOM      4  C   UNL     1      -1.103   2.878 -22.839  0.00  0.00    +0.065 A 
ATOM      5  C   UNL     1      -2.345   2.800 -22.462  0.00  0.00    +0.203 A 
ATOM      6  C   UNL     1      -3.270   3.415 -23.138  0.00  0.00    +0.096 A 
ATOM      7  C   UNL     1      -2.952   4.109 -24.192  0.00  0.00    +0.210 A 
ATOM      8  O   UNL     1      -1.711   4.186 -24.568  0.00  0.00    -0.462 OA
ATOM      9  O   UNL     1      -2.661   2.106 -21.409  0.00  0.00    -0.286 OA
ATOM     10  C   UNL     1      -0.786   3.571 -23.892  0.00  0.00    +0.142 A 
ATOM     11  C   UNL     1       0.455   3.649 -24.270  0.00  0.00    +0.093 A 
ENDROOT
BRANCH   6  12
ATOM     12  C   UNL     1      -4.511   3.337 -22.761  0.00  0.00    +0.265 C 
ATOM     13  O   UNL     1      -5.460   3.722 -23.563  0.00  0.00    -0.295 OA
ENDBRANCH   6  12
BRANCH   1  14
ATOM     14  O   UNL     1       2.622   3.112 -23.971  0.00  0.00    -0.426 OA
BRANCH  14  16
ATOM     15  C   UNL     1       4.598   3.171 -22.892  0.00  0.00    +0.136 C 
ATOM     16  C   UNL     1       3.485   3.750 -23.237  0.00  0.00    +0.309 C 
ATOM     17  O   UNL     1       3.237   4.965 -22.849  0.00  0.00    -0.251 OA
ENDBRANCH  14  16
ENDBRANCH   1  14
TORSDOF 3
ENDMDL
MODEL 8
REMARK VINA RESULT:    -6.689      2.199      4.005
REMARK INTER + INTRA:          -8.130
REMARK INTER:                  -7.868
REMARK INTRA:                  -0.262
REMARK UNBOUND:                -0.268
REMARK  Name = ZINC000000334890
REMARK  4 active torsions:
REMARK  status: ('A' for Active; 'I' for Inactive)
REMARK    1  A    between atoms: C_1  and  C_2
REMARK    2  A    between atoms: C_2  and  O_4
REMARK    3  A    between atoms: O_4  and  C_5
REMARK    4  A    between atoms: C_11  and  C_12
REMARK                            x       y       z     vdW  Elec       q    Type
REMARK                         _______ _______ _______ _____ _____    ______ ____
ROOT
ATOM      1  C   UNL     1       4.020   2.411 -22.451  0.00  0.00    +0.135 A 
ATOM      2  C   UNL     1       3.597   3.361 -23.231  0.00  0.00    +0.047 A 
ATOM      3  C   UNL     1       2.321   3.575 -23.362  0.00  0.00    +0.019 A 
ATOM      4  C   UNL     1       1.469   2.838 -22.712  0.00  0.00    +0.065 A 
ATOM      5  C   UNL     1       0.193   3.052 -22.843  0.00  0.00    +0.203 A 
ATOM      6  C   UNL     1      -0.659   2.316 -22.194  0.00  0.00    +0.096 A 
ATOM      7  C   UNL     1      -0.235   1.365 -21.413  0.00  0.00    +0.210 A 
ATOM      8  O   UNL     1       1.040   1.152 -21.283  0.00  0.00    -0.462 OA
ATOM      9  O   UNL     1      -0.230   4.002 -23.623  0.00  0.00    -0.286 OA
ATOM     10  C   UNL     1       1.893   1.888 -21.933  0.00  0.00    +0.142 A 
ATOM     11  C   UNL     1       3.168   1.675 -21.802  0.00  0.00    +0.093 A 
ENDROOT
BRANCH   6  12
ATOM     12  C   UNL     1      -1.934   2.528 -22.323  0.00  0.00    +0.265 C 
ATOM     13  O   UNL     1      -2.688   2.631 -21.269  0.00  0.00    -0.295 OA
ENDBRANCH   6  12
BRANCH   1  14
ATOM     14  O   UNL     1       5.296   2.198 -22.321  0.00  0.00    -0.426 OA
BRANCH  14  16
ATOM     15  C   UNL     1       6.907   3.765 -22.172  0.00  0.00    +0.136 C 
ATOM     16  C   UNL     1       6.020   3.003 -21.602  0.00  0.00    +0.309 C 
ATOM     17  O   UNL     1       5.857   3.048 -20.313  0.00  0.00    -0.251 OA
ENDBRANCH  14  16
ENDBRANCH   1  14
TORSDOF 3
ENDMDL
MODEL 9
REMARK VINA RESULT:    -6.546      2.360      3.206
REMARK INTER + INTRA:          -7.962
REMARK INTER:                  -7.694
REMARK INTRA:                  -0.268
REMARK UNBOUND:                -0.268
REMARK  Name = ZINC000000334890
REMARK  4 active torsions:
REMARK  status: ('A' for Active; 'I' for Inactive)
REMARK    1  A    between atoms: C_1  and  C_2
REMARK    2  A    between atoms: C_2  and  O_4
REMARK    3  A    between atoms: O_4  and  C_5
REMARK    4  A    between atoms: C_11  and  C_12
REMARK                            x       y       z     vdW  Elec       q    Type
REMARK                         _______ _______ _______ _____ _____    ______ ____
ROOT
ATOM      1  C   UNL     1       2.581   3.225 -23.468  0.00  0.00    +0.135 A 
ATOM      2  C   UNL     1       2.422   2.071 -22.891  0.00  0.00    +0.047 A 
ATOM      3  C   UNL     1       1.277   1.766 -22.354  0.00  0.00    +0.019 A 
ATOM      4  C   UNL     1       0.294   2.615 -22.393  0.00  0.00    +0.065 A 
ATOM      5  C   UNL     1      -0.850   2.309 -21.856  0.00  0.00    +0.203 A 
ATOM      6  C   UNL     1      -1.834   3.158 -21.895  0.00  0.00    +0.096 A 
ATOM      7  C   UNL     1      -1.674   4.313 -22.472  0.00  0.00    +0.210 A 
ATOM      8  O   UNL     1      -0.530   4.618 -23.009  0.00  0.00    -0.462 OA
ATOM      9  O   UNL     1      -1.010   1.155 -21.280  0.00  0.00    -0.286 OA
ATOM     10  C   UNL     1       0.454   3.769 -22.970  0.00  0.00    +0.142 A 
ATOM     11  C   UNL     1       1.598   4.074 -23.507  0.00  0.00    +0.093 A 
ENDROOT
BRANCH   6  12
ATOM     12  C   UNL     1      -2.977   2.854 -21.358  0.00  0.00    +0.265 C 
ATOM     13  O   UNL     1      -3.321   3.376 -20.218  0.00  0.00    -0.295 OA
ENDBRANCH   6  12
BRANCH   1  14
ATOM     14  O   UNL     1       3.726   3.530 -24.005  0.00  0.00    -0.426 OA
BRANCH  14  16
ATOM     15  C   UNL     1       5.837   3.333 -23.247  0.00  0.00    +0.136 C 
ATOM     16  C   UNL     1       4.699   3.962 -23.260  0.00  0.00    +0.309 C 
ATOM     17  O   UNL     1       4.535   5.024 -22.528  0.00  0.00    -0.251 OA
ENDBRANCH  14  16
ENDBRANCH   1  14
TORSDOF 3
ENDMDL
