MODEL 1
REMARK VINA RESULT:    -8.926      0.000      0.000
REMARK INTER + INTRA:         -12.120
REMARK INTER:                 -11.614
REMARK INTRA:                  -0.507
REMARK UNBOUND:                -0.586
REMARK  Name = CN1[C@H]2CC[C@@H]1C[C@@H](OC(=O)[C@H](CO)c1ccccc1)C2                 ZINC000100068360
REMARK  7 active torsions:
REMARK  status: ('A' for Active; 'I' for Inactive)
REMARK    1  A    between atoms: C_1  and  N_2
REMARK    2  A    between atoms: C_8  and  O_9
REMARK    3  A    between atoms: O_9  and  C_10
REMARK    4  A    between atoms: C_10  and  C_12
REMARK    5  A    between atoms: C_12  and  C_13
REMARK    6  A    between atoms: C_12  and  C_15
REMARK    7  A    between atoms: C_13  and  O_14
REMARK                            x       y       z     vdW  Elec       q    Type
REMARK                         _______ _______ _______ _____ _____    ______ ____
ROOT
ATOM      1  C   UNL     1       0.061   2.873 -23.183  0.00  0.00    +0.317 C 
ATOM      2  O   UNL     1       0.062   1.531 -23.257  0.00  0.00    -0.250 OA
ENDROOT
BRANCH   1   3
ATOM      3  O   UNL     1      -0.715   3.501 -22.244  0.00  0.00    -0.460 OA
BRANCH   3  11
ATOM      4  C   UNL     1      -4.802   3.309 -22.428  0.00  0.00    +0.191 C 
ATOM      5  N   UNL     1      -4.289   3.332 -22.404  0.00  0.00    +0.238 N 
ATOM      6  H   UNL     1      -3.271   3.379 -22.356  0.00  0.00    +0.204 HD
ATOM      7  C   UNL     1      -4.182   2.939 -21.584  0.00  0.00    +0.068 C 
ATOM      8  C   UNL     1      -5.566   2.897 -21.694  0.00  0.00    +0.060 C 
ATOM      9  C   UNL     1      -5.531   3.650 -23.230  0.00  0.00    +0.060 C 
ATOM     10  C   UNL     1      -2.890   2.881 -21.285  0.00  0.00    +0.099 C 
ATOM     11  C   UNL     1      -2.093   3.435 -22.303  0.00  0.00    +0.187 C 
ATOM     12  C   UNL     1      -2.841   3.916 -23.393  0.00  0.00    +0.099 C 
ATOM     13  C   UNL     1      -4.145   3.737 -23.212  0.00  0.00    +0.068 C 
ENDBRANCH   3  11
ENDBRANCH   1   3
BRANCH   1  14
ATOM     14  C   UNL     1       0.842   3.600 -24.056  0.00  0.00    +0.153 C 
BRANCH  14  15
ATOM     15  C   UNL     1       2.077   4.011 -23.697  0.00  0.00    -0.032 A 
ATOM     16  C   UNL     1       3.130   3.181 -23.791  0.00  0.00    +0.004 A 
ATOM     17  C   UNL     1       4.357   3.598 -23.431  0.00  0.00    +0.000 A 
ATOM     18  C   UNL     1       4.532   4.856 -22.975  0.00  0.00    +0.000 A 
ATOM     19  C   UNL     1       3.479   5.686 -22.882  0.00  0.00    +0.000 A 
ATOM     20  C   UNL     1       2.253   5.269 -23.241  0.00  0.00    +0.004 A 
ENDBRANCH  14  15
BRANCH  14  21
ATOM     21  C   UNL     1       0.373   3.906 -25.280  0.00  0.00    +0.175 C 
BRANCH  21  22
ATOM     22  O   UNL     1      -0.533   3.105 -25.873  0.00  0.00    -0.394 OA
ATOM     23  H   UNL     1      -0.252   2.916 -26.782  0.00  0.00    +0.209 HD
ENDBRANCH  21  22
ENDBRANCH  14  21
ENDBRANCH   1  14
TORSDOF 6
ENDMDL
MODEL 2
REMARK VINA RESULT:    -8.796      2.337      6.325
REMARK INTER + INTRA:         -11.953
REMARK INTER:                 -11.111
REMARK INTRA:                  -0.842
REMARK UNBOUND:                -0.586
REMARK  Name = CN1[C@H]2CC[C@@H]1C[C@@H](OC(=O)[C@H](CO)c1ccccc1)C2                 ZINC000100068360
REMARK  7 active torsions:
REMARK  status: ('A' for Active; 'I' for Inactive)
REMARK    1  A    between atoms: C_1  and  N_2
REMARK    2  A    between atoms: C_8  and  O_9
REMARK    3  A    between atoms: O_9  and  C_10
REMARK    4  A    between atoms: C_10  and  C_12
REMARK    5  A    between atoms: C_12  and  C_13
REMARK    6  A    between atoms: C_12  and  C_15
REMARK    7  A    between atoms: C_13  and  O_14
REMARK                            x       y       z     vdW  Elec       q    Type
REMARK                         _______ _______ _______ _____ _____    ______ ____
ROOT
ATOM      1  C   UNL     1      -0.921   3.324 -24.229  0.00  0.00    +0.317 C 
ATOM      2  O   UNL     1      -0.931   3.756 -25.502  0.00  0.00    -0.250 OA
ENDROOT
BRANCH   1   3
ATOM      3  O   UNL     1      -0.368   2.106 -23.930  0.00  0.00    -0.460 OA
BRANCH   3  11
ATOM      4  C   UNL     1       2.932   1.828 -21.519  0.00  0.00    +0.191 C 
ATOM      5  N   UNL     1       2.518   1.864 -21.822  0.00  0.00    +0.238 N 
ATOM      6  H   UNL     1       1.698   1.934 -22.425  0.00  0.00    +0.204 HD
ATOM      7  C   UNL     1       2.912   2.300 -22.525  0.00  0.00    +0.068 C 
ATOM      8  C   UNL     1       4.002   2.181 -21.671  0.00  0.00    +0.060 C 
ATOM      9  C   UNL     1       3.067   1.375 -20.487  0.00  0.00    +0.060 C 
ATOM     10  C   UNL     1       2.012   2.514 -23.476  0.00  0.00    +0.099 C 
ATOM     11  C   UNL     1       0.747   2.014 -23.119  0.00  0.00    +0.187 C 
ATOM     12  C   UNL     1       0.727   1.407 -21.849  0.00  0.00    +0.099 C 
ATOM     13  C   UNL     1       1.921   1.445 -21.269  0.00  0.00    +0.068 C 
ENDBRANCH   3  11
ENDBRANCH   1   3
BRANCH   1  14
ATOM     14  C   UNL     1      -1.469   4.113 -23.241  0.00  0.00    +0.153 C 
BRANCH  14  15
ATOM     15  C   UNL     1      -2.613   3.750 -22.623  0.00  0.00    -0.032 A 
ATOM     16  C   UNL     1      -2.608   3.392 -21.327  0.00  0.00    +0.004 A 
ATOM     17  C   UNL     1      -3.752   3.031 -20.718  0.00  0.00    +0.000 A 
ATOM     18  C   UNL     1      -4.910   3.028 -21.411  0.00  0.00    +0.000 A 
ATOM     19  C   UNL     1      -4.914   3.386 -22.707  0.00  0.00    +0.000 A 
ATOM     20  C   UNL     1      -3.772   3.747 -23.316  0.00  0.00    +0.004 A 
ENDBRANCH  14  15
BRANCH  14  21
ATOM     21  C   UNL     1      -0.861   5.261 -22.886  0.00  0.00    +0.175 C 
BRANCH  21  22
ATOM     22  O   UNL     1       0.297   5.619 -23.473  0.00  0.00    -0.394 OA
ATOM     23  H   UNL     1       0.109   6.061 -24.316  0.00  0.00    +0.209 HD
ENDBRANCH  21  22
ENDBRANCH  14  21
ENDBRANCH   1  14
TORSDOF 6
ENDMDL
MODEL 3
REMARK VINA RESULT:    -8.705      2.236      6.357
REMARK INTER + INTRA:         -11.835
REMARK INTER:                 -11.197
REMARK INTRA:                  -0.639
REMARK UNBOUND:                -0.586
REMARK  Name = CN1[C@H]2CC[C@@H]1C[C@@H](OC(=O)[C@H](CO)c1ccccc1)C2                 ZINC000100068360
REMARK  7 active torsions:
REMARK  status: ('A' for Active; 'I' for Inactive)
REMARK    1  A    between atoms: C_1  and  N_2
REMARK    2  A    between atoms: C_8  and  O_9
REMARK    3  A    between atoms: O_9  and  C_10
REMARK    4  A    between atoms: C_10  and  C_12
REMARK    5  A    between atoms: C_12  and  C_13
REMARK    6  A    between atoms: C_12  and  C_15
REMARK    7  A    between atoms: C_13  and  O_14
REMARK                            x       y       z     vdW  Elec       q    Type
REMARK                         _______ _______ _______ _____ _____    ______ ____
ROOT
ATOM      1  C   UNL     1      -0.970   3.990 -24.013  0.00  0.00    +0.317 C 
ATOM      2  O   UNL     1      -0.706   5.119 -23.333  0.00  0.00    -0.250 OA
ENDROOT
BRANCH   1   3
ATOM      3  O   UNL     1       0.061   3.172 -24.399  0.00  0.00    -0.460 OA
BRANCH   3  11
ATOM      4  C   UNL     1       2.919   1.988 -21.714  0.00  0.00    +0.191 C 
ATOM      5  N   UNL     1       2.561   2.137 -22.051  0.00  0.00    +0.238 N 
ATOM      6  H   UNL     1       1.851   2.434 -22.721  0.00  0.00    +0.204 HD
ATOM      7  C   UNL     1       3.071   2.734 -22.523  0.00  0.00    +0.068 C 
ATOM      8  C   UNL     1       4.005   2.300 -21.590  0.00  0.00    +0.060 C 
ATOM      9  C   UNL     1       2.877   1.244 -20.857  0.00  0.00    +0.060 C 
ATOM     10  C   UNL     1       2.341   3.276 -23.490  0.00  0.00    +0.099 C 
ATOM     11  C   UNL     1       1.027   2.775 -23.495  0.00  0.00    +0.187 C 
ATOM     12  C   UNL     1       0.792   1.825 -22.484  0.00  0.00    +0.099 C 
ATOM     13  C   UNL     1       1.875   1.614 -21.745  0.00  0.00    +0.068 C 
ENDBRANCH   3  11
ENDBRANCH   1   3
BRANCH   1  14
ATOM     14  C   UNL     1      -2.276   3.670 -24.314  0.00  0.00    +0.153 C 
BRANCH  14  15
ATOM     15  C   UNL     1      -3.159   3.383 -23.334  0.00  0.00    -0.032 A 
ATOM     16  C   UNL     1      -2.758   2.766 -22.209  0.00  0.00    +0.004 A 
ATOM     17  C   UNL     1      -3.643   2.483 -21.237  0.00  0.00    +0.000 A 
ATOM     18  C   UNL     1      -4.941   2.820 -21.392  0.00  0.00    +0.000 A 
ATOM     19  C   UNL     1      -5.342   3.437 -22.517  0.00  0.00    +0.000 A 
ATOM     20  C   UNL     1      -4.457   3.719 -23.489  0.00  0.00    +0.004 A 
ENDBRANCH  14  15
BRANCH  14  21
ATOM     21  C   UNL     1      -2.681   3.642 -25.598  0.00  0.00    +0.175 C 
BRANCH  21  22
ATOM     22  O   UNL     1      -1.808   3.321 -26.572  0.00  0.00    -0.394 OA
ATOM     23  H   UNL     1      -1.272   2.564 -26.290  0.00  0.00    +0.209 HD
ENDBRANCH  21  22
ENDBRANCH  14  21
ENDBRANCH   1  14
TORSDOF 6
ENDMDL
MODEL 4
REMARK VINA RESULT:    -8.667      1.437      2.051
REMARK INTER + INTRA:         -11.786
REMARK INTER:                 -11.346
REMARK INTRA:                  -0.441
REMARK UNBOUND:                -0.586
REMARK  Name = CN1[C@H]2CC[C@@H]1C[C@@H](OC(=O)[C@H](CO)c1ccccc1)C2                 ZINC000100068360
REMARK  7 active torsions:
REMARK  status: ('A' for Active; 'I' for Inactive)
REMARK    1  A    between atoms: C_1  and  N_2
REMARK    2  A    between atoms: C_8  and  O_9
REMARK    3  A    between atoms: O_9  and  C_10
REMARK    4  A    between atoms: C_10  and  C_12
REMARK    5  A    between atoms: C_12  and  C_13
REMARK    6  A    between atoms: C_12  and  C_15
REMARK    7  A    between atoms: C_13  and  O_14
REMARK                            x       y       z     vdW  Elec       q    Type
REMARK                         _______ _______ _______ _____ _____    ______ ____
ROOT
ATOM      1  C   UNL     1      -0.131   3.988 -24.082  0.00  0.00    +0.317 C 
ATOM      2  O   UNL     1      -0.195   5.142 -23.396  0.00  0.00    -0.250 OA
ENDROOT
BRANCH   1   3
ATOM      3  O   UNL     1      -1.287   3.384 -24.505  0.00  0.00    -0.460 OA
BRANCH   3  11
ATOM      4  C   UNL     1      -4.477   2.936 -21.976  0.00  0.00    +0.191 C 
ATOM      5  N   UNL     1      -4.076   2.991 -22.292  0.00  0.00    +0.238 N 
ATOM      6  H   UNL     1      -3.280   3.102 -22.921  0.00  0.00    +0.204 HD
ATOM      7  C   UNL     1      -3.447   2.571 -21.777  0.00  0.00    +0.068 C 
ATOM      8  C   UNL     1      -4.559   2.444 -20.954  0.00  0.00    +0.060 C 
ATOM      9  C   UNL     1      -5.560   3.263 -22.073  0.00  0.00    +0.060 C 
ATOM     10  C   UNL     1      -2.277   2.584 -22.404  0.00  0.00    +0.099 C 
ATOM     11  C   UNL     1      -2.361   3.232 -23.650  0.00  0.00    +0.187 C 
ATOM     12  C   UNL     1      -3.652   3.710 -23.941  0.00  0.00    +0.099 C 
ATOM     13  C   UNL     1      -4.508   3.439 -22.963  0.00  0.00    +0.068 C 
ENDBRANCH   3  11
ENDBRANCH   1   3
BRANCH   1  14
ATOM     14  C   UNL     1       1.099   3.427 -24.350  0.00  0.00    +0.153 C 
BRANCH  14  15
ATOM     15  C   UNL     1       1.852   2.908 -23.357  0.00  0.00    -0.032 A 
ATOM     16  C   UNL     1       3.138   3.271 -23.211  0.00  0.00    +0.004 A 
ATOM     17  C   UNL     1       3.882   2.750 -22.219  0.00  0.00    +0.000 A 
ATOM     18  C   UNL     1       3.334   1.858 -21.366  0.00  0.00    +0.000 A 
ATOM     19  C   UNL     1       2.048   1.496 -21.512  0.00  0.00    +0.000 A 
ATOM     20  C   UNL     1       1.305   2.016 -22.504  0.00  0.00    +0.004 A 
ENDBRANCH  14  15
BRANCH  14  21
ATOM     21  C   UNL     1       1.559   3.392 -25.615  0.00  0.00    +0.175 C 
BRANCH  21  22
ATOM     22  O   UNL     1       1.615   2.222 -26.279  0.00  0.00    -0.394 OA
ATOM     23  H   UNL     1       1.558   1.488 -25.648  0.00  0.00    +0.209 HD
ENDBRANCH  21  22
ENDBRANCH  14  21
ENDBRANCH   1  14
TORSDOF 6
ENDMDL
MODEL 5
REMARK VINA RESULT:    -8.476      1.661      2.416
REMARK INTER + INTRA:         -11.539
REMARK INTER:                 -11.030
REMARK INTRA:                  -0.509
REMARK UNBOUND:                -0.586
REMARK  Name = CN1[C@H]2CC[C@@H]1C[C@@H](OC(=O)[C@H](CO)c1ccccc1)C2                 ZINC000100068360
REMARK  7 active torsions:
REMARK  status: ('A' for Active; 'I' for Inactive)
REMARK    1  A    between atoms: C_1  and  N_2
REMARK    2  A    between atoms: C_8  and  O_9
REMARK    3  A    between atoms: O_9  and  C_10
REMARK    4  A    between atoms: C_10  and  C_12
REMARK    5  A    between atoms: C_12  and  C_13
REMARK    6  A    between atoms: C_12  and  C_15
REMARK    7  A    between atoms: C_13  and  O_14
REMARK                            x       y       z     vdW  Elec       q    Type
REMARK                         _______ _______ _______ _____ _____    ______ ____
ROOT
ATOM      1  C   UNL     1       0.521   2.928 -23.550  0.00  0.00    +0.317 C 
ATOM      2  O   UNL     1       0.381   4.179 -23.078  0.00  0.00    -0.250 OA
ENDROOT
BRANCH   1   3
ATOM      3  O   UNL     1      -0.571   2.103 -23.622  0.00  0.00    -0.460 OA
BRANCH   3  11
ATOM      4  C   UNL     1      -4.359   3.642 -23.864  0.00  0.00    +0.191 C 
ATOM      5  N   UNL     1      -3.883   3.449 -23.835  0.00  0.00    +0.238 N 
ATOM      6  H   UNL     1      -2.939   3.066 -23.777  0.00  0.00    +0.204 HD
ATOM      7  C   UNL     1      -3.627   3.610 -24.699  0.00  0.00    +0.068 C 
ATOM      8  C   UNL     1      -4.919   4.120 -24.730  0.00  0.00    +0.060 C 
ATOM      9  C   UNL     1      -5.182   3.726 -23.086  0.00  0.00    +0.060 C 
ATOM     10  C   UNL     1      -2.383   3.183 -24.880  0.00  0.00    +0.099 C 
ATOM     11  C   UNL     1      -1.848   2.622 -23.707  0.00  0.00    +0.187 C 
ATOM     12  C   UNL     1      -2.745   2.643 -22.623  0.00  0.00    +0.099 C 
ATOM     13  C   UNL     1      -3.907   3.193 -22.956  0.00  0.00    +0.068 C 
ENDBRANCH   3  11
ENDBRANCH   1   3
BRANCH   1  14
ATOM     14  C   UNL     1       1.765   2.493 -23.955  0.00  0.00    +0.153 C 
BRANCH  14  15
ATOM     15  C   UNL     1       2.755   2.301 -23.058  0.00  0.00    -0.032 A 
ATOM     16  C   UNL     1       3.990   2.779 -23.288  0.00  0.00    +0.004 A 
ATOM     17  C   UNL     1       4.972   2.585 -22.389  0.00  0.00    +0.000 A 
ATOM     18  C   UNL     1       4.715   1.906 -21.251  0.00  0.00    +0.000 A 
ATOM     19  C   UNL     1       3.480   1.429 -21.021  0.00  0.00    +0.000 A 
ATOM     20  C   UNL     1       2.499   1.623 -21.919  0.00  0.00    +0.004 A 
ENDBRANCH  14  15
BRANCH  14  21
ATOM     21  C   UNL     1       1.999   2.254 -25.259  0.00  0.00    +0.175 C 
BRANCH  21  22
ATOM     22  O   UNL     1       1.098   2.634 -26.185  0.00  0.00    -0.394 OA
ATOM     23  H   UNL     1       1.521   2.661 -27.057  0.00  0.00    +0.209 HD
ENDBRANCH  21  22
ENDBRANCH  14  21
ENDBRANCH   1  14
TORSDOF 6
ENDMDL
MODEL 6
REMARK VINA RESULT:    -8.357      1.886      3.068
REMARK INTER + INTRA:         -11.385
REMARK INTER:                 -10.623
REMARK INTRA:                  -0.763
REMARK UNBOUND:                -0.586
REMARK  Name = CN1[C@H]2CC[C@@H]1C[C@@H](OC(=O)[C@H](CO)c1ccccc1)C2                 ZINC000100068360
REMARK  7 active torsions:
REMARK  status: ('A' for Active; 'I' for Inactive)
REMARK    1  A    between atoms: C_1  and  N_2
REMARK    2  A    between atoms: C_8  and  O_9
REMARK    3  A    between atoms: O_9  and  C_10
REMARK    4  A    between atoms: C_10  and  C_12
REMARK    5  A    between atoms: C_12  and  C_13
REMARK    6  A    between atoms: C_12  and  C_15
REMARK    7  A    between atoms: C_13  and  O_14
REMARK                            x       y       z     vdW  Elec       q    Type
REMARK                         _______ _______ _______ _____ _____    ______ ____
ROOT
ATOM      1  C   UNL     1       0.541   1.445 -21.507  0.00  0.00    +0.317 C 
ATOM      2  O   UNL     1       0.506   1.424 -20.164  0.00  0.00    -0.250 OA
ENDROOT
BRANCH   1   3
ATOM      3  O   UNL     1      -0.531   0.978 -22.222  0.00  0.00    -0.460 OA
BRANCH   3  11
ATOM      4  C   UNL     1      -3.884   3.277 -22.720  0.00  0.00    +0.191 C 
ATOM      5  N   UNL     1      -3.463   2.989 -22.658  0.00  0.00    +0.238 N 
ATOM      6  H   UNL     1      -2.627   2.417 -22.537  0.00  0.00    +0.204 HD
ATOM      7  C   UNL     1      -3.137   3.057 -23.512  0.00  0.00    +0.068 C 
ATOM      8  C   UNL     1      -4.286   3.828 -23.629  0.00  0.00    +0.060 C 
ATOM      9  C   UNL     1      -4.706   3.566 -21.992  0.00  0.00    +0.060 C 
ATOM     10  C   UNL     1      -2.006   2.368 -23.611  0.00  0.00    +0.099 C 
ATOM     11  C   UNL     1      -1.661   1.754 -22.393  0.00  0.00    +0.187 C 
ATOM     12  C   UNL     1      -2.584   2.009 -21.362  0.00  0.00    +0.099 C 
ATOM     13  C   UNL     1      -3.583   2.780 -21.776  0.00  0.00    +0.068 C 
ENDBRANCH   3  11
ENDBRANCH   1   3
BRANCH   1  14
ATOM     14  C   UNL     1       1.658   1.936 -22.147  0.00  0.00    +0.153 C 
BRANCH  14  15
ATOM     15  C   UNL     1       1.539   2.703 -23.252  0.00  0.00    -0.032 A 
ATOM     16  C   UNL     1       1.209   4.002 -23.153  0.00  0.00    +0.004 A 
ATOM     17  C   UNL     1       1.092   4.760 -24.258  0.00  0.00    +0.000 A 
ATOM     18  C   UNL     1       1.306   4.212 -25.473  0.00  0.00    +0.000 A 
ATOM     19  C   UNL     1       1.636   2.913 -25.572  0.00  0.00    +0.000 A 
ATOM     20  C   UNL     1       1.753   2.156 -24.468  0.00  0.00    +0.004 A 
ENDBRANCH  14  15
BRANCH  14  21
ATOM     21  C   UNL     1       2.885   1.651 -21.670  0.00  0.00    +0.175 C 
BRANCH  21  22
ATOM     22  O   UNL     1       3.149   0.423 -21.185  0.00  0.00    -0.394 OA
ATOM     23  H   UNL     1       2.387  -0.157 -21.339  0.00  0.00    +0.209 HD
ENDBRANCH  21  22
ENDBRANCH  14  21
ENDBRANCH   1  14
TORSDOF 6
ENDMDL
MODEL 7
REMARK VINA RESULT:    -8.231      2.435      6.467
REMARK INTER + INTRA:         -11.223
REMARK INTER:                 -10.785
REMARK INTRA:                  -0.438
REMARK UNBOUND:                -0.586
REMARK  Name = CN1[C@H]2CC[C@@H]1C[C@@H](OC(=O)[C@H](CO)c1ccccc1)C2                 ZINC000100068360
REMARK  7 active torsions:
REMARK  status: ('A' for Active; 'I' for Inactive)
REMARK    1  A    between atoms: C_1  and  N_2
REMARK    2  A    between atoms: C_8  and  O_9
REMARK    3  A    between atoms: O_9  and  C_10
REMARK    4  A    between atoms: C_10  and  C_12
REMARK    5  A    between atoms: C_12  and  C_13
REMARK    6  A    between atoms: C_12  and  C_15
REMARK    7  A    between atoms: C_13  and  O_14
REMARK                            x       y       z     vdW  Elec       q    Type
REMARK                         _______ _______ _______ _____ _____    ______ ____
ROOT
ATOM      1  C   UNL     1      -1.155   2.499 -22.569  0.00  0.00    +0.317 C 
ATOM      2  O   UNL     1      -1.649   1.980 -21.432  0.00  0.00    -0.250 OA
ENDROOT
BRANCH   1   3
ATOM      3  O   UNL     1      -0.132   1.858 -23.220  0.00  0.00    -0.460 OA
BRANCH   3  11
ATOM      4  C   UNL     1       3.771   2.533 -22.180  0.00  0.00    +0.191 C 
ATOM      5  N   UNL     1       3.281   2.448 -22.310  0.00  0.00    +0.238 N 
ATOM      6  H   UNL     1       2.309   2.278 -22.567  0.00  0.00    +0.204 HD
ATOM      7  C   UNL     1       3.088   1.821 -21.671  0.00  0.00    +0.068 C 
ATOM      8  C   UNL     1       4.415   2.085 -21.357  0.00  0.00    +0.060 C 
ATOM      9  C   UNL     1       4.553   3.228 -22.623  0.00  0.00    +0.060 C 
ATOM     10  C   UNL     1       1.827   1.427 -21.802  0.00  0.00    +0.099 C 
ATOM     11  C   UNL     1       1.184   2.084 -22.867  0.00  0.00    +0.187 C 
ATOM     12  C   UNL     1       2.016   2.997 -23.540  0.00  0.00    +0.099 C 
ATOM     13  C   UNL     1       3.235   3.033 -23.012  0.00  0.00    +0.068 C 
ENDBRANCH   3  11
ENDBRANCH   1   3
BRANCH   1  14
ATOM     14  C   UNL     1      -1.685   3.670 -23.066  0.00  0.00    +0.153 C 
BRANCH  14  15
ATOM     15  C   UNL     1      -2.623   3.645 -24.037  0.00  0.00    -0.032 A 
ATOM     16  C   UNL     1      -2.275   3.454 -25.322  0.00  0.00    +0.004 A 
ATOM     17  C   UNL     1      -3.215   3.431 -26.284  0.00  0.00    +0.000 A 
ATOM     18  C   UNL     1      -4.514   3.599 -25.957  0.00  0.00    +0.000 A 
ATOM     19  C   UNL     1      -4.861   3.789 -24.673  0.00  0.00    +0.000 A 
ATOM     20  C   UNL     1      -3.922   3.813 -23.712  0.00  0.00    +0.004 A 
ENDBRANCH  14  15
BRANCH  14  21
ATOM     21  C   UNL     1      -1.267   4.854 -22.581  0.00  0.00    +0.175 C 
BRANCH  21  22
ATOM     22  O   UNL     1      -0.331   5.559 -23.244  0.00  0.00    -0.394 OA
ATOM     23  H   UNL     1       0.540   5.388 -22.854  0.00  0.00    +0.209 HD
ENDBRANCH  21  22
ENDBRANCH  14  21
ENDBRANCH   1  14
TORSDOF 6
ENDMDL
MODEL 8
REMARK VINA RESULT:    -8.173      1.741      2.677
REMARK INTER + INTRA:         -11.147
REMARK INTER:                 -10.264
REMARK INTRA:                  -0.884
REMARK UNBOUND:                -0.586
REMARK  Name = CN1[C@H]2CC[C@@H]1C[C@@H](OC(=O)[C@H](CO)c1ccccc1)C2                 ZINC000100068360
REMARK  7 active torsions:
REMARK  status: ('A' for Active; 'I' for Inactive)
REMARK    1  A    between atoms: C_1  and  N_2
REMARK    2  A    between atoms: C_8  and  O_9
REMARK    3  A    between atoms: O_9  and  C_10
REMARK    4  A    between atoms: C_10  and  C_12
REMARK    5  A    between atoms: C_12  and  C_13
REMARK    6  A    between atoms: C_12  and  C_15
REMARK    7  A    between atoms: C_13  and  O_14
REMARK                            x       y       z     vdW  Elec       q    Type
REMARK                         _______ _______ _______ _____ _____    ______ ____
ROOT
ATOM      1  C   UNL     1       2.162   1.347 -22.330  0.00  0.00    +0.317 C 
ATOM      2  O   UNL     1       2.698   1.221 -21.104  0.00  0.00    -0.250 OA
ENDROOT
BRANCH   1   3
ATOM      3  O   UNL     1       0.912   0.843 -22.580  0.00  0.00    -0.460 OA
BRANCH   3  11
ATOM      4  C   UNL     1      -2.423   3.180 -22.137  0.00  0.00    +0.191 C 
ATOM      5  N   UNL     1      -2.005   2.887 -22.194  0.00  0.00    +0.238 N 
ATOM      6  H   UNL     1      -1.174   2.305 -22.307  0.00  0.00    +0.204 HD
ATOM      7  C   UNL     1      -1.921   2.959 -23.103  0.00  0.00    +0.068 C 
ATOM      8  C   UNL     1      -3.050   3.743 -22.901  0.00  0.00    +0.060 C 
ATOM      9  C   UNL     1      -3.014   3.470 -21.212  0.00  0.00    +0.060 C 
ATOM     10  C   UNL     1      -0.867   2.260 -23.509  0.00  0.00    +0.099 C 
ATOM     11  C   UNL     1      -0.213   1.632 -22.434  0.00  0.00    +0.187 C 
ATOM     12  C   UNL     1      -0.819   1.886 -21.190  0.00  0.00    +0.099 C 
ATOM     13  C   UNL     1      -1.884   2.671 -21.313  0.00  0.00    +0.068 C 
ENDBRANCH   3  11
ENDBRANCH   1   3
BRANCH   1  14
ATOM     14  C   UNL     1       2.879   1.984 -23.320  0.00  0.00    +0.153 C 
BRANCH  14  15
ATOM     15  C   UNL     1       3.268   3.268 -23.173  0.00  0.00    -0.032 A 
ATOM     16  C   UNL     1       4.567   3.579 -23.029  0.00  0.00    +0.004 A 
ATOM     17  C   UNL     1       4.947   4.861 -22.883  0.00  0.00    +0.000 A 
ATOM     18  C   UNL     1       4.019   5.840 -22.882  0.00  0.00    +0.000 A 
ATOM     19  C   UNL     1       2.719   5.529 -23.026  0.00  0.00    +0.000 A 
ATOM     20  C   UNL     1       2.339   4.248 -23.172  0.00  0.00    +0.004 A 
ENDBRANCH  14  15
BRANCH  14  21
ATOM     21  C   UNL     1       3.197   1.321 -24.448  0.00  0.00    +0.175 C 
BRANCH  21  22
ATOM     22  O   UNL     1       2.274   1.156 -25.415  0.00  0.00    -0.394 OA
ATOM     23  H   UNL     1       1.420   0.934 -25.013  0.00  0.00    +0.209 HD
ENDBRANCH  21  22
ENDBRANCH  14  21
ENDBRANCH   1  14
TORSDOF 6
ENDMDL
MODEL 9
REMARK VINA RESULT:    -8.085      2.276      6.548
REMARK INTER + INTRA:         -11.034
REMARK INTER:                 -10.449
REMARK INTRA:                  -0.586
REMARK UNBOUND:                -0.586
REMARK  Name = CN1[C@H]2CC[C@@H]1C[C@@H](OC(=O)[C@H](CO)c1ccccc1)C2                 ZINC000100068360
REMARK  7 active torsions:
REMARK  status: ('A' for Active; 'I' for Inactive)
REMARK    1  A    between atoms: C_1  and  N_2
REMARK    2  A    between atoms: C_8  and  O_9
REMARK    3  A    between atoms: O_9  and  C_10
REMARK    4  A    between atoms: C_10  and  C_12
REMARK    5  A    between atoms: C_12  and  C_13
REMARK    6  A    between atoms: C_12  and  C_15
REMARK    7  A    between atoms: C_13  and  O_14
REMARK                            x       y       z     vdW  Elec       q    Type
REMARK                         _______ _______ _______ _____ _____    ______ ____
ROOT
ATOM      1  C   UNL     1      -0.282   2.050 -23.510  0.00  0.00    +0.317 C 
ATOM      2  O   UNL     1      -0.035   1.191 -22.505  0.00  0.00    -0.250 OA
ENDROOT
BRANCH   1   3
ATOM      3  O   UNL     1       0.701   2.324 -24.426  0.00  0.00    -0.460 OA
BRANCH   3  11
ATOM      4  C   UNL     1       4.238   4.035 -23.270  0.00  0.00    +0.191 C 
ATOM      5  N   UNL     1       3.793   3.822 -23.415  0.00  0.00    +0.238 N 
ATOM      6  H   UNL     1       2.911   3.398 -23.702  0.00  0.00    +0.204 HD
ATOM      7  C   UNL     1       3.256   4.554 -23.301  0.00  0.00    +0.068 C 
ATOM      8  C   UNL     1       4.480   5.089 -22.918  0.00  0.00    +0.060 C 
ATOM      9  C   UNL     1       5.287   3.607 -23.200  0.00  0.00    +0.060 C 
ATOM     10  C   UNL     1       2.006   4.244 -23.624  0.00  0.00    +0.099 C 
ATOM     11  C   UNL     1       1.892   2.904 -24.036  0.00  0.00    +0.187 C 
ATOM     12  C   UNL     1       3.115   2.209 -24.011  0.00  0.00    +0.099 C 
ATOM     13  C   UNL     1       4.113   2.984 -23.600  0.00  0.00    +0.068 C 
ENDBRANCH   3  11
ENDBRANCH   1   3
BRANCH   1  14
ATOM     14  C   UNL     1      -1.522   2.643 -23.605  0.00  0.00    +0.153 C 
BRANCH  14  15
ATOM     15  C   UNL     1      -2.174   3.060 -22.499  0.00  0.00    -0.032 A 
ATOM     16  C   UNL     1      -1.804   4.190 -21.870  0.00  0.00    +0.004 A 
ATOM     17  C   UNL     1      -2.458   4.599 -20.769  0.00  0.00    +0.000 A 
ATOM     18  C   UNL     1      -3.490   3.872 -20.292  0.00  0.00    +0.000 A 
ATOM     19  C   UNL     1      -3.860   2.743 -20.920  0.00  0.00    +0.000 A 
ATOM     20  C   UNL     1      -3.207   2.334 -22.021  0.00  0.00    +0.004 A 
ENDBRANCH  14  15
BRANCH  14  21
ATOM     21  C   UNL     1      -2.095   2.810 -24.812  0.00  0.00    +0.175 C 
BRANCH  21  22
ATOM     22  O   UNL     1      -1.376   3.314 -25.834  0.00  0.00    -0.394 OA
ATOM     23  H   UNL     1      -1.715   4.193 -26.065  0.00  0.00    +0.209 HD
ENDBRANCH  21  22
ENDBRANCH  14  21
ENDBRANCH   1  14
TORSDOF 6
ENDMDL
