MODEL 1
REMARK VINA RESULT:   -10.144      0.000      0.000
REMARK INTER + INTRA:         -10.144
REMARK INTER:                 -10.144
REMARK INTRA:                   0.000
REMARK UNBOUND:                 0.000
REMARK  Name = ZINC000003159526
REMARK  1 active torsions:
REMARK  status: ('A' for Active; 'I' for Inactive)
REMARK    1  A    between atoms: C_6  and  C_7
REMARK                            x       y       z     vdW  Elec       q    Type
REMARK                         _______ _______ _______ _____ _____    ______ ____
ROOT
ATOM      1  C   UNL     1      -3.420   4.121 -25.519  0.00  0.00    +0.008 C 
ATOM      2  C   UNL     1      -3.898   3.779 -24.360  0.00  0.00    -0.073 C 
ATOM      3  C   UNL     1      -5.154   3.980 -24.089  0.00  0.00    +0.030 C 
ATOM      4  C   UNL     1      -5.632   3.639 -22.929  0.00  0.00    +0.005 C 
ATOM      5  C   UNL     1      -4.855   3.096 -22.040  0.00  0.00    +0.007 C 
ATOM      6  C   UNL     1      -3.600   2.894 -22.310  0.00  0.00    -0.022 C 
ATOM      7  C   UNL     1      -2.822   2.351 -21.421  0.00  0.00    +0.052 C 
ATOM      8  C   UNL     1      -1.567   2.149 -21.691  0.00  0.00    +0.185 C 
ATOM      9  O   UNL     1      -0.599   1.635 -20.992  0.00  0.00    -0.457 OA
ATOM     10  C   UNL     1       0.478   1.658 -21.720  0.00  0.00    +0.335 C 
ATOM     11  C   UNL     1       0.175   2.187 -22.868  0.00  0.00    +0.036 C 
ATOM     12  C   UNL     1       0.992   2.379 -23.860  0.00  0.00    +0.020 C 
ATOM     13  O   UNL     1       1.651   1.228 -21.363  0.00  0.00    -0.245 OA
ATOM     14  C   UNL     1      -1.089   2.491 -22.850  0.00  0.00    +0.067 C 
ATOM     15  C   UNL     1      -1.865   3.034 -23.740  0.00  0.00    +0.020 C 
ATOM     16  C   UNL     1      -4.079   2.553 -21.150  0.00  0.00    +0.012 C 
ATOM     17  C   UNL     1      -3.120   3.236 -23.470  0.00  0.00    +0.021 C 
ENDROOT
TORSDOF 0
ENDMDL
MODEL 2
REMARK VINA RESULT:   -10.138      1.180      2.597
REMARK INTER + INTRA:         -10.138
REMARK INTER:                 -10.138
REMARK INTRA:                   0.000
REMARK UNBOUND:                 0.000
REMARK  Name = ZINC000003159526
REMARK  1 active torsions:
REMARK  status: ('A' for Active; 'I' for Inactive)
REMARK    1  A    between atoms: C_6  and  C_7
REMARK                            x       y       z     vdW  Elec       q    Type
REMARK                         _______ _______ _______ _____ _____    ______ ____
ROOT
ATOM      1  C   UNL     1      -4.431   2.429 -20.629  0.00  0.00    +0.008 C 
ATOM      2  C   UNL     1      -4.416   2.904 -21.839  0.00  0.00    -0.073 C 
ATOM      3  C   UNL     1      -5.509   3.369 -22.369  0.00  0.00    +0.030 C 
ATOM      4  C   UNL     1      -5.494   3.844 -23.579  0.00  0.00    +0.005 C 
ATOM      5  C   UNL     1      -4.386   3.856 -24.259  0.00  0.00    +0.007 C 
ATOM      6  C   UNL     1      -3.294   3.393 -23.730  0.00  0.00    -0.022 C 
ATOM      7  C   UNL     1      -2.185   3.404 -24.409  0.00  0.00    +0.052 C 
ATOM      8  C   UNL     1      -1.093   2.940 -23.880  0.00  0.00    +0.185 C 
ATOM      9  O   UNL     1       0.120   2.839 -24.337  0.00  0.00    -0.457 OA
ATOM     10  C   UNL     1       0.855   2.301 -23.410  0.00  0.00    +0.335 C 
ATOM     11  C   UNL     1       0.097   2.070 -22.380  0.00  0.00    +0.036 C 
ATOM     12  C   UNL     1       0.474   1.537 -21.256  0.00  0.00    +0.020 C 
ATOM     13  O   UNL     1       2.126   2.040 -23.497  0.00  0.00    -0.245 OA
ATOM     14  C   UNL     1      -1.107   2.465 -22.670  0.00  0.00    +0.067 C 
ATOM     15  C   UNL     1      -2.215   2.453 -21.990  0.00  0.00    +0.020 C 
ATOM     16  C   UNL     1      -3.279   3.868 -24.940  0.00  0.00    +0.012 C 
ATOM     17  C   UNL     1      -3.308   2.916 -22.519  0.00  0.00    +0.021 C 
ENDROOT
TORSDOF 0
ENDMDL
MODEL 3
REMARK VINA RESULT:   -10.032      0.939      1.040
REMARK INTER + INTRA:         -10.032
REMARK INTER:                 -10.032
REMARK INTRA:                   0.000
REMARK UNBOUND:                 0.000
REMARK  Name = ZINC000003159526
REMARK  1 active torsions:
REMARK  status: ('A' for Active; 'I' for Inactive)
REMARK    1  A    between atoms: C_6  and  C_7
REMARK                            x       y       z     vdW  Elec       q    Type
REMARK                         _______ _______ _______ _____ _____    ______ ____
ROOT
ATOM      1  C   UNL     1      -4.412   4.194 -25.265  0.00  0.00    +0.008 C 
ATOM      2  C   UNL     1      -4.448   3.768 -24.037  0.00  0.00    -0.073 C 
ATOM      3  C   UNL     1      -5.579   3.726 -23.397  0.00  0.00    +0.030 C 
ATOM      4  C   UNL     1      -5.616   3.300 -22.169  0.00  0.00    +0.005 C 
ATOM      5  C   UNL     1      -4.522   2.915 -21.581  0.00  0.00    +0.007 C 
ATOM      6  C   UNL     1      -3.392   2.957 -22.221  0.00  0.00    -0.022 C 
ATOM      7  C   UNL     1      -2.297   2.572 -21.634  0.00  0.00    +0.052 C 
ATOM      8  C   UNL     1      -1.167   2.614 -22.274  0.00  0.00    +0.185 C 
ATOM      9  O   UNL     1       0.043   2.293 -21.923  0.00  0.00    -0.457 OA
ATOM     10  C   UNL     1       0.828   2.521 -22.934  0.00  0.00    +0.335 C 
ATOM     11  C   UNL     1       0.103   2.983 -23.909  0.00  0.00    +0.036 C 
ATOM     12  C   UNL     1       0.535   3.327 -25.086  0.00  0.00    +0.020 C 
ATOM     13  O   UNL     1       2.113   2.323 -22.964  0.00  0.00    -0.245 OA
ATOM     14  C   UNL     1      -1.130   3.040 -23.502  0.00  0.00    +0.067 C 
ATOM     15  C   UNL     1      -2.223   3.425 -24.089  0.00  0.00    +0.020 C 
ATOM     16  C   UNL     1      -3.429   2.531 -20.993  0.00  0.00    +0.012 C 
ATOM     17  C   UNL     1      -3.354   3.383 -23.450  0.00  0.00    +0.021 C 
ENDROOT
TORSDOF 0
ENDMDL
MODEL 4
REMARK VINA RESULT:    -9.550      1.904      4.618
REMARK INTER + INTRA:          -9.550
REMARK INTER:                  -9.550
REMARK INTRA:                   0.000
REMARK UNBOUND:                 0.000
REMARK  Name = ZINC000003159526
REMARK  1 active torsions:
REMARK  status: ('A' for Active; 'I' for Inactive)
REMARK    1  A    between atoms: C_6  and  C_7
REMARK                            x       y       z     vdW  Elec       q    Type
REMARK                         _______ _______ _______ _____ _____    ______ ____
ROOT
ATOM      1  C   UNL     1       0.097   3.730 -25.497  0.00  0.00    +0.008 C 
ATOM      2  C   UNL     1       0.224   3.125 -24.353  0.00  0.00    -0.073 C 
ATOM      3  C   UNL     1       1.386   2.681 -23.977  0.00  0.00    +0.030 C 
ATOM      4  C   UNL     1       1.513   2.076 -22.833  0.00  0.00    +0.005 C 
ATOM      5  C   UNL     1       0.477   1.914 -22.065  0.00  0.00    +0.007 C 
ATOM      6  C   UNL     1      -0.686   2.357 -22.441  0.00  0.00    -0.022 C 
ATOM      7  C   UNL     1      -1.723   2.196 -21.674  0.00  0.00    +0.052 C 
ATOM      8  C   UNL     1      -2.885   2.639 -22.049  0.00  0.00    +0.185 C 
ATOM      9  O   UNL     1      -4.054   2.607 -21.480  0.00  0.00    -0.457 OA
ATOM     10  C   UNL     1      -4.902   3.192 -22.272  0.00  0.00    +0.335 C 
ATOM     11  C   UNL     1      -4.259   3.586 -23.330  0.00  0.00    +0.036 C 
ATOM     12  C   UNL     1      -4.771   4.212 -24.348  0.00  0.00    +0.020 C 
ATOM     13  O   UNL     1      -6.172   3.355 -22.046  0.00  0.00    -0.245 OA
ATOM     14  C   UNL     1      -3.012   3.245 -23.193  0.00  0.00    +0.067 C 
ATOM     15  C   UNL     1      -1.976   3.406 -23.961  0.00  0.00    +0.020 C 
ATOM     16  C   UNL     1      -0.559   1.752 -21.297  0.00  0.00    +0.012 C 
ATOM     17  C   UNL     1      -0.813   2.963 -23.585  0.00  0.00    +0.021 C 
ENDROOT
TORSDOF 0
ENDMDL
MODEL 5
REMARK VINA RESULT:    -9.362      2.223      5.139
REMARK INTER + INTRA:          -9.362
REMARK INTER:                  -9.362
REMARK INTRA:                   0.000
REMARK UNBOUND:                 0.000
REMARK  Name = ZINC000003159526
REMARK  1 active torsions:
REMARK  status: ('A' for Active; 'I' for Inactive)
REMARK    1  A    between atoms: C_6  and  C_7
REMARK                            x       y       z     vdW  Elec       q    Type
REMARK                         _______ _______ _______ _____ _____    ______ ____
ROOT
ATOM      1  C   UNL     1       0.761   1.503 -21.379  0.00  0.00    +0.008 C 
ATOM      2  C   UNL     1       0.586   2.100 -22.521  0.00  0.00    -0.073 C 
ATOM      3  C   UNL     1       1.589   2.265 -23.330  0.00  0.00    +0.030 C 
ATOM      4  C   UNL     1       1.414   2.863 -24.471  0.00  0.00    +0.005 C 
ATOM      5  C   UNL     1       0.234   3.295 -24.804  0.00  0.00    +0.007 C 
ATOM      6  C   UNL     1      -0.770   3.131 -23.995  0.00  0.00    -0.022 C 
ATOM      7  C   UNL     1      -1.950   3.563 -24.327  0.00  0.00    +0.052 C 
ATOM      8  C   UNL     1      -2.954   3.398 -23.518  0.00  0.00    +0.185 C 
ATOM      9  O   UNL     1      -4.208   3.730 -23.610  0.00  0.00    -0.457 OA
ATOM     10  C   UNL     1      -4.807   3.338 -22.525  0.00  0.00    +0.335 C 
ATOM     11  C   UNL     1      -3.924   2.764 -21.764  0.00  0.00    +0.036 C 
ATOM     12  C   UNL     1      -4.146   2.244 -20.593  0.00  0.00    +0.020 C 
ATOM     13  O   UNL     1      -6.068   3.493 -22.250  0.00  0.00    -0.245 OA
ATOM     14  C   UNL     1      -2.779   2.801 -22.377  0.00  0.00    +0.067 C 
ATOM     15  C   UNL     1      -1.599   2.368 -22.044  0.00  0.00    +0.020 C 
ATOM     16  C   UNL     1      -0.945   3.728 -25.137  0.00  0.00    +0.012 C 
ATOM     17  C   UNL     1      -0.595   2.533 -22.853  0.00  0.00    +0.021 C 
ENDROOT
TORSDOF 0
ENDMDL
MODEL 6
REMARK VINA RESULT:    -8.900      1.199      1.936
REMARK INTER + INTRA:          -8.900
REMARK INTER:                  -8.900
REMARK INTRA:                   0.000
REMARK UNBOUND:                 0.000
REMARK  Name = ZINC000003159526
REMARK  1 active torsions:
REMARK  status: ('A' for Active; 'I' for Inactive)
REMARK    1  A    between atoms: C_6  and  C_7
REMARK                            x       y       z     vdW  Elec       q    Type
REMARK                         _______ _______ _______ _____ _____    ______ ____
ROOT
ATOM      1  C   UNL     1      -1.071   3.682 -25.609  0.00  0.00    +0.008 C 
ATOM      2  C   UNL     1      -1.722   3.464 -24.506  0.00  0.00    -0.073 C 
ATOM      3  C   UNL     1      -2.979   3.786 -24.417  0.00  0.00    +0.030 C 
ATOM      4  C   UNL     1      -3.630   3.567 -23.313  0.00  0.00    +0.005 C 
ATOM      5  C   UNL     1      -3.025   3.026 -22.298  0.00  0.00    +0.007 C 
ATOM      6  C   UNL     1      -1.769   2.703 -22.386  0.00  0.00    -0.022 C 
ATOM      7  C   UNL     1      -1.163   2.162 -21.371  0.00  0.00    +0.052 C 
ATOM      8  C   UNL     1       0.093   1.840 -21.459  0.00  0.00    +0.185 C 
ATOM      9  O   UNL     1       0.913   1.298 -20.609  0.00  0.00    -0.457 OA
ATOM     10  C   UNL     1       2.072   1.182 -21.187  0.00  0.00    +0.335 C 
ATOM     11  C   UNL     1       1.967   1.652 -22.394  0.00  0.00    +0.036 C 
ATOM     12  C   UNL     1       2.918   1.707 -23.278  0.00  0.00    +0.020 C 
ATOM     13  O   UNL     1       3.147   0.684 -20.652  0.00  0.00    -0.245 OA
ATOM     14  C   UNL     1       0.744   2.059 -22.563  0.00  0.00    +0.067 C 
ATOM     15  C   UNL     1       0.139   2.600 -23.578  0.00  0.00    +0.020 C 
ATOM     16  C   UNL     1      -2.420   2.484 -21.282  0.00  0.00    +0.012 C 
ATOM     17  C   UNL     1      -1.117   2.922 -23.490  0.00  0.00    +0.021 C 
ENDROOT
TORSDOF 0
ENDMDL
MODEL 7
REMARK VINA RESULT:    -8.487      2.335      3.876
REMARK INTER + INTRA:          -8.487
REMARK INTER:                  -8.487
REMARK INTRA:                   0.000
REMARK UNBOUND:                 0.000
REMARK  Name = ZINC000003159526
REMARK  1 active torsions:
REMARK  status: ('A' for Active; 'I' for Inactive)
REMARK    1  A    between atoms: C_6  and  C_7
REMARK                            x       y       z     vdW  Elec       q    Type
REMARK                         _______ _______ _______ _____ _____    ______ ____
ROOT
ATOM      1  C   UNL     1       1.155   4.010 -25.323  0.00  0.00    +0.008 C 
ATOM      2  C   UNL     1       0.369   3.443 -24.456  0.00  0.00    -0.073 C 
ATOM      3  C   UNL     1      -0.920   3.566 -24.569  0.00  0.00    +0.030 C 
ATOM      4  C   UNL     1      -1.706   2.999 -23.702  0.00  0.00    +0.005 C 
ATOM      5  C   UNL     1      -1.203   2.309 -22.722  0.00  0.00    +0.007 C 
ATOM      6  C   UNL     1       0.085   2.186 -22.609  0.00  0.00    -0.022 C 
ATOM      7  C   UNL     1       0.590   1.496 -21.629  0.00  0.00    +0.052 C 
ATOM      8  C   UNL     1       1.878   1.373 -21.515  0.00  0.00    +0.185 C 
ATOM      9  O   UNL     1       2.619   0.751 -20.647  0.00  0.00    -0.457 OA
ATOM     10  C   UNL     1       3.864   0.933 -20.977  0.00  0.00    +0.335 C 
ATOM     11  C   UNL     1       3.891   1.668 -22.049  0.00  0.00    +0.036 C 
ATOM     12  C   UNL     1       4.958   2.062 -22.678  0.00  0.00    +0.020 C 
ATOM     13  O   UNL     1       4.898   0.464 -20.345  0.00  0.00    -0.245 OA
ATOM     14  C   UNL     1       2.664   1.939 -22.382  0.00  0.00    +0.067 C 
ATOM     15  C   UNL     1       2.162   2.629 -23.362  0.00  0.00    +0.020 C 
ATOM     16  C   UNL     1      -0.701   1.619 -21.742  0.00  0.00    +0.012 C 
ATOM     17  C   UNL     1       0.873   2.753 -23.476  0.00  0.00    +0.021 C 
ENDROOT
TORSDOF 0
ENDMDL
MODEL 8
REMARK VINA RESULT:    -7.989      2.754      6.237
REMARK INTER + INTRA:          -7.989
REMARK INTER:                  -7.989
REMARK INTRA:                   0.000
REMARK UNBOUND:                 0.000
REMARK  Name = ZINC000003159526
REMARK  1 active torsions:
REMARK  status: ('A' for Active; 'I' for Inactive)
REMARK    1  A    between atoms: C_6  and  C_7
REMARK                            x       y       z     vdW  Elec       q    Type
REMARK                         _______ _______ _______ _____ _____    ______ ____
ROOT
ATOM      1  C   UNL     1       3.475   6.071 -22.795  0.00  0.00    +0.008 C 
ATOM      2  C   UNL     1       3.660   4.814 -23.072  0.00  0.00    -0.073 C 
ATOM      3  C   UNL     1       4.866   4.348 -23.206  0.00  0.00    +0.030 C 
ATOM      4  C   UNL     1       5.051   3.091 -23.483  0.00  0.00    +0.005 C 
ATOM      5  C   UNL     1       4.030   2.300 -23.626  0.00  0.00    +0.007 C 
ATOM      6  C   UNL     1       2.824   2.765 -23.492  0.00  0.00    -0.022 C 
ATOM      7  C   UNL     1       1.801   1.975 -23.634  0.00  0.00    +0.052 C 
ATOM      8  C   UNL     1       0.595   2.440 -23.500  0.00  0.00    +0.185 C 
ATOM      9  O   UNL     1      -0.571   1.873 -23.591  0.00  0.00    -0.457 OA
ATOM     10  C   UNL     1      -1.477   2.779 -23.369  0.00  0.00    +0.335 C 
ATOM     11  C   UNL     1      -0.870   3.906 -23.143  0.00  0.00    +0.036 C 
ATOM     12  C   UNL     1      -1.443   5.043 -22.881  0.00  0.00    +0.020 C 
ATOM     13  O   UNL     1      -2.763   2.591 -23.374  0.00  0.00    -0.245 OA
ATOM     14  C   UNL     1       0.410   3.697 -23.223  0.00  0.00    +0.067 C 
ATOM     15  C   UNL     1       1.432   4.488 -23.081  0.00  0.00    +0.020 C 
ATOM     16  C   UNL     1       3.008   1.509 -23.769  0.00  0.00    +0.012 C 
ATOM     17  C   UNL     1       2.638   4.023 -23.215  0.00  0.00    +0.021 C 
ENDROOT
TORSDOF 0
ENDMDL
MODEL 9
REMARK VINA RESULT:    -7.854      2.522      6.074
REMARK INTER + INTRA:          -7.854
REMARK INTER:                  -7.854
REMARK INTRA:                   0.000
REMARK UNBOUND:                 0.000
REMARK  Name = ZINC000003159526
REMARK  1 active torsions:
REMARK  status: ('A' for Active; 'I' for Inactive)
REMARK    1  A    between atoms: C_6  and  C_7
REMARK                            x       y       z     vdW  Elec       q    Type
REMARK                         _______ _______ _______ _____ _____    ______ ____
ROOT
ATOM      1  C   UNL     1       2.072   1.501 -20.661  0.00  0.00    +0.008 C 
ATOM      2  C   UNL     1       2.381   1.578 -21.921  0.00  0.00    -0.073 C 
ATOM      3  C   UNL     1       3.518   1.108 -22.342  0.00  0.00    +0.030 C 
ATOM      4  C   UNL     1       3.827   1.184 -23.603  0.00  0.00    +0.005 C 
ATOM      5  C   UNL     1       3.000   1.732 -24.443  0.00  0.00    +0.007 C 
ATOM      6  C   UNL     1       1.864   2.203 -24.022  0.00  0.00    -0.022 C 
ATOM      7  C   UNL     1       1.035   2.751 -24.862  0.00  0.00    +0.052 C 
ATOM      8  C   UNL     1      -0.101   3.221 -24.441  0.00  0.00    +0.185 C 
ATOM      9  O   UNL     1      -1.083   3.804 -25.061  0.00  0.00    -0.457 OA
ATOM     10  C   UNL     1      -2.000   4.088 -24.184  0.00  0.00    +0.335 C 
ATOM     11  C   UNL     1      -1.584   3.680 -23.022  0.00  0.00    +0.036 C 
ATOM     12  C   UNL     1      -2.227   3.789 -21.898  0.00  0.00    +0.020 C 
ATOM     13  O   UNL     1      -3.134   4.676 -24.426  0.00  0.00    -0.245 OA
ATOM     14  C   UNL     1      -0.410   3.144 -23.181  0.00  0.00    +0.067 C 
ATOM     15  C   UNL     1       0.417   2.597 -22.341  0.00  0.00    +0.020 C 
ATOM     16  C   UNL     1       2.173   2.279 -25.283  0.00  0.00    +0.012 C 
ATOM     17  C   UNL     1       1.553   2.126 -22.761  0.00  0.00    +0.021 C 
ENDROOT
TORSDOF 0
ENDMDL
