MODEL 1
REMARK VINA RESULT:    -9.099      0.000      0.000
REMARK INTER + INTRA:         -10.264
REMARK INTER:                 -12.229
REMARK INTRA:                   1.965
REMARK UNBOUND:                 1.228
REMARK  Name = ZINC000006418967
REMARK  11 active torsions:
REMARK  status: ('A' for Active; 'I' for Inactive)
REMARK    1  A    between atoms: C_1  and  O_2
REMARK    2  A    between atoms: O_2  and  C_3
REMARK    3  A    between atoms: C_5  and  O_6
REMARK    4  A    between atoms: C_7  and  C_8
REMARK    5  A    between atoms: C_9  and  C_10
REMARK    6  A    between atoms: C_12  and  O_13
REMARK    7  A    between atoms: O_13  and  C_14
REMARK    8  A    between atoms: C_16  and  O_17
REMARK    9  A    between atoms: O_17  and  C_18
REMARK   10  A    between atoms: C_25  and  C_26
REMARK   11  A    between atoms: C_28  and  C_29
REMARK                            x       y       z     vdW  Elec       q    Type
REMARK                         _______ _______ _______ _____ _____    ______ ____
ROOT
ATOM      1  C   UNL     1      -3.351   3.412 -24.699  0.00  0.00    +0.132 A 
ATOM      2  C   UNL     1      -2.311   3.139 -25.431  0.00  0.00    +0.092 A 
ATOM      3  C   UNL     1      -1.164   2.902 -24.867  0.00  0.00    +0.128 A 
ATOM      4  C   UNL     1      -1.057   2.937 -23.572  0.00  0.00    +0.028 A 
ATOM      5  C   UNL     1      -2.097   3.209 -22.840  0.00  0.00    -0.019 A 
ATOM      6  C   UNL     1      -1.989   3.244 -21.545  0.00  0.00    +0.090 C 
ATOM      7  C   UNL     1      -3.029   3.517 -20.814  0.00  0.00    +0.064 C 
ATOM      8  C   UNL     1      -2.922   3.552 -19.518  0.00  0.00    +0.064 C 
ATOM      9  N   UNL     1      -4.176   3.754 -21.378  0.00  0.00    +0.235 N 
ATOM     10  H   UNL     1      -4.348   4.735 -21.154  0.00  0.00    +0.202 HD
ATOM     11  H   UNL     1      -4.833   3.067 -21.009  0.00  0.00    +0.202 HD
ATOM     12  C   UNL     1      -4.283   3.719 -22.673  0.00  0.00    +0.095 C 
ATOM     13  C   UNL     1      -5.430   3.957 -23.237  0.00  0.00    +0.069 C 
ATOM     14  C   UNL     1      -3.244   3.447 -23.404  0.00  0.00    +0.045 A 
ENDROOT
BRANCH   4  15
ATOM     15  C   UNL     1       0.090   2.699 -23.008  0.00  0.00    -0.003 A 
ATOM     16  C   UNL     1       0.267   1.603 -22.331  0.00  0.00    -0.039 A 
ATOM     17  C   UNL     1       1.414   1.366 -21.767  0.00  0.00    +0.050 A 
ATOM     18  C   UNL     1       2.384   2.225 -21.880  0.00  0.00    +0.132 A 
ATOM     19  C   UNL     1       2.207   3.320 -22.557  0.00  0.00    +0.066 A 
ATOM     20  C   UNL     1       3.177   4.178 -22.670  0.00  0.00    +0.131 A 
ATOM     21  C   UNL     1       3.000   5.274 -23.346  0.00  0.00    +0.046 A 
ATOM     22  C   UNL     1       1.853   5.512 -23.910  0.00  0.00    +0.004 A 
ATOM     23  C   UNL     1       0.883   4.653 -23.797  0.00  0.00    +0.009 A 
ATOM     24  C   UNL     1      -0.702   0.745 -22.218  0.00  0.00    +0.044 C 
ATOM     25  C   UNL     1       1.060   3.557 -23.121  0.00  0.00    -0.003 A 
BRANCH  20  26
ATOM     26  O   UNL     1       4.324   3.940 -22.106  0.00  0.00    -0.494 OA
ATOM     27  C   UNL     1       5.423   4.342 -22.673  0.00  0.00    +0.277 C 
ENDBRANCH  20  26
BRANCH  18  28
ATOM     28  O   UNL     1       3.531   1.987 -21.316  0.00  0.00    -0.494 OA
ATOM     29  C   UNL     1       3.878   0.766 -21.037  0.00  0.00    +0.277 C 
ENDBRANCH  18  28
ENDBRANCH   4  15
BRANCH   1  31
ATOM     30  C   UNL     1      -4.817   3.045 -26.368  0.00  0.00    +0.277 C 
ATOM     31  O   UNL     1      -4.498   3.649 -25.263  0.00  0.00    -0.495 OA
ENDBRANCH   1  31
BRANCH   3  32
ATOM     32  O   UNL     1      -0.125   2.630 -25.598  0.00  0.00    -0.506 OA
ATOM     33  H   UNL     1       0.471   1.957 -25.333  0.00  0.00    +0.292 HD
ENDBRANCH   3  32
TORSDOF 5
ENDMDL
MODEL 2
REMARK VINA RESULT:    -8.863      1.884      2.767
REMARK INTER + INTRA:          -9.966
REMARK INTER:                 -10.574
REMARK INTRA:                   0.608
REMARK UNBOUND:                 1.228
REMARK  Name = ZINC000006418967
REMARK  11 active torsions:
REMARK  status: ('A' for Active; 'I' for Inactive)
REMARK    1  A    between atoms: C_1  and  O_2
REMARK    2  A    between atoms: O_2  and  C_3
REMARK    3  A    between atoms: C_5  and  O_6
REMARK    4  A    between atoms: C_7  and  C_8
REMARK    5  A    between atoms: C_9  and  C_10
REMARK    6  A    between atoms: C_12  and  O_13
REMARK    7  A    between atoms: O_13  and  C_14
REMARK    8  A    between atoms: C_16  and  O_17
REMARK    9  A    between atoms: O_17  and  C_18
REMARK   10  A    between atoms: C_25  and  C_26
REMARK   11  A    between atoms: C_28  and  C_29
REMARK                            x       y       z     vdW  Elec       q    Type
REMARK                         _______ _______ _______ _____ _____    ______ ____
ROOT
ATOM      1  C   UNL     1      -1.464   3.317 -24.599  0.00  0.00    +0.132 A 
ATOM      2  C   UNL     1      -0.665   3.768 -25.521  0.00  0.00    +0.092 A 
ATOM      3  C   UNL     1       0.621   3.747 -25.334  0.00  0.00    +0.128 A 
ATOM      4  C   UNL     1       1.108   3.275 -24.225  0.00  0.00    +0.028 A 
ATOM      5  C   UNL     1       0.309   2.825 -23.303  0.00  0.00    -0.019 A 
ATOM      6  C   UNL     1       0.797   2.353 -22.194  0.00  0.00    +0.090 C 
ATOM      7  C   UNL     1      -0.002   1.903 -21.273  0.00  0.00    +0.064 C 
ATOM      8  C   UNL     1       0.485   1.431 -20.163  0.00  0.00    +0.064 C 
ATOM      9  N   UNL     1      -1.288   1.924 -21.461  0.00  0.00    +0.235 N 
ATOM     10  H   UNL     1      -1.616   2.588 -20.759  0.00  0.00    +0.202 HD
ATOM     11  H   UNL     1      -1.613   0.960 -21.382  0.00  0.00    +0.202 HD
ATOM     12  C   UNL     1      -1.776   2.395 -22.570  0.00  0.00    +0.095 C 
ATOM     13  C   UNL     1      -3.062   2.417 -22.757  0.00  0.00    +0.069 C 
ATOM     14  C   UNL     1      -0.977   2.846 -23.491  0.00  0.00    +0.045 A 
ENDROOT
BRANCH   4  15
ATOM     15  C   UNL     1       2.394   3.254 -24.037  0.00  0.00    -0.003 A 
ATOM     16  C   UNL     1       3.082   2.200 -24.365  0.00  0.00    -0.039 A 
ATOM     17  C   UNL     1       4.368   2.179 -24.178  0.00  0.00    +0.050 A 
ATOM     18  C   UNL     1       4.967   3.212 -23.661  0.00  0.00    +0.132 A 
ATOM     19  C   UNL     1       4.279   4.265 -23.334  0.00  0.00    +0.066 A 
ATOM     20  C   UNL     1       4.878   5.297 -22.818  0.00  0.00    +0.131 A 
ATOM     21  C   UNL     1       4.191   6.351 -22.489  0.00  0.00    +0.046 A 
ATOM     22  C   UNL     1       2.905   6.372 -22.677  0.00  0.00    +0.004 A 
ATOM     23  C   UNL     1       2.305   5.339 -23.193  0.00  0.00    +0.009 A 
ATOM     24  C   UNL     1       2.484   1.168 -24.881  0.00  0.00    +0.044 C 
ATOM     25  C   UNL     1       2.993   4.286 -23.521  0.00  0.00    -0.003 A 
BRANCH  20  26
ATOM     26  O   UNL     1       6.164   5.276 -22.630  0.00  0.00    -0.494 OA
ATOM     27  C   UNL     1       6.726   6.171 -21.871  0.00  0.00    +0.277 C 
ENDBRANCH  20  26
BRANCH  18  28
ATOM     28  O   UNL     1       6.253   3.191 -23.474  0.00  0.00    -0.494 OA
ATOM     29  C   UNL     1       6.810   2.165 -22.902  0.00  0.00    +0.277 C 
ENDBRANCH  18  28
ENDBRANCH   4  15
BRANCH   1  31
ATOM     30  C   UNL     1      -3.230   3.385 -25.994  0.00  0.00    +0.277 C 
ATOM     31  O   UNL     1      -2.750   3.338 -24.787  0.00  0.00    -0.495 OA
ENDBRANCH   1  31
BRANCH   3  32
ATOM     32  O   UNL     1       1.419   4.197 -26.255  0.00  0.00    -0.506 OA
ATOM     33  H   UNL     1       1.955   3.603 -26.742  0.00  0.00    +0.292 HD
ENDBRANCH   3  32
TORSDOF 5
ENDMDL
MODEL 3
REMARK VINA RESULT:    -8.320      2.153      6.870
REMARK INTER + INTRA:          -9.281
REMARK INTER:                 -10.666
REMARK INTRA:                   1.386
REMARK UNBOUND:                 1.228
REMARK  Name = ZINC000006418967
REMARK  11 active torsions:
REMARK  status: ('A' for Active; 'I' for Inactive)
REMARK    1  A    between atoms: C_1  and  O_2
REMARK    2  A    between atoms: O_2  and  C_3
REMARK    3  A    between atoms: C_5  and  O_6
REMARK    4  A    between atoms: C_7  and  C_8
REMARK    5  A    between atoms: C_9  and  C_10
REMARK    6  A    between atoms: C_12  and  O_13
REMARK    7  A    between atoms: O_13  and  C_14
REMARK    8  A    between atoms: C_16  and  O_17
REMARK    9  A    between atoms: O_17  and  C_18
REMARK   10  A    between atoms: C_25  and  C_26
REMARK   11  A    between atoms: C_28  and  C_29
REMARK                            x       y       z     vdW  Elec       q    Type
REMARK                         _______ _______ _______ _____ _____    ______ ____
ROOT
ATOM      1  C   UNL     1       3.825   1.378 -22.037  0.00  0.00    +0.132 A 
ATOM      2  C   UNL     1       2.855   0.540 -22.259  0.00  0.00    +0.092 A 
ATOM      3  C   UNL     1       1.728   0.966 -22.747  0.00  0.00    +0.128 A 
ATOM      4  C   UNL     1       1.571   2.228 -23.014  0.00  0.00    +0.028 A 
ATOM      5  C   UNL     1       2.540   3.066 -22.793  0.00  0.00    -0.019 A 
ATOM      6  C   UNL     1       2.383   4.328 -23.059  0.00  0.00    +0.090 C 
ATOM      7  C   UNL     1       3.352   5.165 -22.838  0.00  0.00    +0.064 C 
ATOM      8  C   UNL     1       3.195   6.428 -23.105  0.00  0.00    +0.064 C 
ATOM      9  N   UNL     1       4.479   4.739 -22.349  0.00  0.00    +0.235 N 
ATOM     10  H   UNL     1       4.518   5.180 -21.430  0.00  0.00    +0.202 HD
ATOM     11  H   UNL     1       5.205   4.992 -23.021  0.00  0.00    +0.202 HD
ATOM     12  C   UNL     1       4.637   3.477 -22.082  0.00  0.00    +0.095 C 
ATOM     13  C   UNL     1       5.764   3.051 -21.594  0.00  0.00    +0.069 C 
ATOM     14  C   UNL     1       3.667   2.640 -22.304  0.00  0.00    +0.045 A 
ENDROOT
BRANCH   4  15
ATOM     15  C   UNL     1       0.443   2.653 -23.503  0.00  0.00    -0.003 A 
ATOM     16  C   UNL     1       0.358   2.966 -24.763  0.00  0.00    -0.039 A 
ATOM     17  C   UNL     1      -0.769   3.391 -25.251  0.00  0.00    +0.050 A 
ATOM     18  C   UNL     1      -1.811   3.505 -24.480  0.00  0.00    +0.132 A 
ATOM     19  C   UNL     1      -1.724   3.192 -23.221  0.00  0.00    +0.066 A 
ATOM     20  C   UNL     1      -2.765   3.306 -22.451  0.00  0.00    +0.131 A 
ATOM     21  C   UNL     1      -2.680   2.994 -21.192  0.00  0.00    +0.046 A 
ATOM     22  C   UNL     1      -1.553   2.568 -20.703  0.00  0.00    +0.004 A 
ATOM     23  C   UNL     1      -0.511   2.455 -21.474  0.00  0.00    +0.009 A 
ATOM     24  C   UNL     1       1.398   2.852 -25.533  0.00  0.00    +0.044 C 
ATOM     25  C   UNL     1      -0.597   2.767 -22.733  0.00  0.00    -0.003 A 
BRANCH  20  26
ATOM     26  O   UNL     1      -3.892   3.731 -22.940  0.00  0.00    -0.494 OA
ATOM     27  C   UNL     1      -5.017   3.358 -22.402  0.00  0.00    +0.277 C 
ENDBRANCH  20  26
BRANCH  18  28
ATOM     28  O   UNL     1      -2.938   3.930 -24.969  0.00  0.00    -0.494 OA
ATOM     29  C   UNL     1      -3.274   3.627 -26.187  0.00  0.00    +0.277 C 
ENDBRANCH  18  28
ENDBRANCH   4  15
BRANCH   1  31
ATOM     30  C   UNL     1       4.958   0.004 -20.659  0.00  0.00    +0.277 C 
ATOM     31  O   UNL     1       4.952   0.952 -21.548  0.00  0.00    -0.495 OA
ENDBRANCH   1  31
BRANCH   3  32
ATOM     32  O   UNL     1       0.759   0.129 -22.969  0.00  0.00    -0.506 OA
ATOM     33  H   UNL     1       0.133   0.305 -23.644  0.00  0.00    +0.292 HD
ENDBRANCH   3  32
TORSDOF 5
ENDMDL
MODEL 4
REMARK VINA RESULT:    -8.180      2.115      6.789
REMARK INTER + INTRA:          -9.103
REMARK INTER:                  -9.777
REMARK INTRA:                   0.674
REMARK UNBOUND:                 1.228
REMARK  Name = ZINC000006418967
REMARK  11 active torsions:
REMARK  status: ('A' for Active; 'I' for Inactive)
REMARK    1  A    between atoms: C_1  and  O_2
REMARK    2  A    between atoms: O_2  and  C_3
REMARK    3  A    between atoms: C_5  and  O_6
REMARK    4  A    between atoms: C_7  and  C_8
REMARK    5  A    between atoms: C_9  and  C_10
REMARK    6  A    between atoms: C_12  and  O_13
REMARK    7  A    between atoms: O_13  and  C_14
REMARK    8  A    between atoms: C_16  and  O_17
REMARK    9  A    between atoms: O_17  and  C_18
REMARK   10  A    between atoms: C_25  and  C_26
REMARK   11  A    between atoms: C_28  and  C_29
REMARK                            x       y       z     vdW  Elec       q    Type
REMARK                         _______ _______ _______ _____ _____    ______ ____
ROOT
ATOM      1  C   UNL     1       3.738   4.364 -22.610  0.00  0.00    +0.132 A 
ATOM      2  C   UNL     1       2.979   5.366 -22.943  0.00  0.00    +0.092 A 
ATOM      3  C   UNL     1       1.771   5.151 -23.373  0.00  0.00    +0.128 A 
ATOM      4  C   UNL     1       1.322   3.935 -23.468  0.00  0.00    +0.028 A 
ATOM      5  C   UNL     1       2.081   2.933 -23.134  0.00  0.00    -0.019 A 
ATOM      6  C   UNL     1       1.632   1.717 -23.229  0.00  0.00    +0.090 C 
ATOM      7  C   UNL     1       2.391   0.716 -22.896  0.00  0.00    +0.064 C 
ATOM      8  C   UNL     1       1.942  -0.501 -22.991  0.00  0.00    +0.064 C 
ATOM      9  N   UNL     1       3.599   0.931 -22.467  0.00  0.00    +0.235 N 
ATOM     10  H   UNL     1       4.183   0.521 -23.196  0.00  0.00    +0.202 HD
ATOM     11  H   UNL     1       3.658   0.521 -21.534  0.00  0.00    +0.202 HD
ATOM     12  C   UNL     1       4.048   2.147 -22.371  0.00  0.00    +0.095 C 
ATOM     13  C   UNL     1       5.256   2.362 -21.942  0.00  0.00    +0.069 C 
ATOM     14  C   UNL     1       3.289   3.148 -22.705  0.00  0.00    +0.045 A 
ENDROOT
BRANCH   4  15
ATOM     15  C   UNL     1       0.114   3.719 -23.897  0.00  0.00    -0.003 A 
ATOM     16  C   UNL     1      -0.127   3.690 -25.175  0.00  0.00    -0.039 A 
ATOM     17  C   UNL     1      -1.335   3.475 -25.604  0.00  0.00    +0.050 A 
ATOM     18  C   UNL     1      -2.302   3.289 -24.755  0.00  0.00    +0.132 A 
ATOM     19  C   UNL     1      -2.062   3.319 -23.478  0.00  0.00    +0.066 A 
ATOM     20  C   UNL     1      -3.029   3.133 -22.631  0.00  0.00    +0.131 A 
ATOM     21  C   UNL     1      -2.790   3.162 -21.353  0.00  0.00    +0.046 A 
ATOM     22  C   UNL     1      -1.581   3.377 -20.924  0.00  0.00    +0.004 A 
ATOM     23  C   UNL     1      -0.613   3.563 -21.772  0.00  0.00    +0.009 A 
ATOM     24  C   UNL     1       0.841   3.876 -26.023  0.00  0.00    +0.044 C 
ATOM     25  C   UNL     1      -0.854   3.534 -23.049  0.00  0.00    -0.003 A 
BRANCH  20  26
ATOM     26  O   UNL     1      -4.237   2.918 -23.060  0.00  0.00    -0.494 OA
ATOM     27  C   UNL     1      -5.257   3.349 -22.376  0.00  0.00    +0.277 C 
ENDBRANCH  20  26
BRANCH  18  28
ATOM     28  O   UNL     1      -3.511   3.074 -25.184  0.00  0.00    -0.494 OA
ATOM     29  C   UNL     1      -3.783   3.200 -26.449  0.00  0.00    +0.277 C 
ENDBRANCH  18  28
ENDBRANCH   4  15
BRANCH   1  31
ATOM     30  C   UNL     1       5.585   5.650 -22.547  0.00  0.00    +0.277 C 
ATOM     31  O   UNL     1       4.946   4.579 -22.180  0.00  0.00    -0.495 OA
ENDBRANCH   1  31
BRANCH   3  32
ATOM     32  O   UNL     1       1.012   6.151 -23.706  0.00  0.00    -0.506 OA
ATOM     33  H   UNL     1       0.274   6.013 -24.266  0.00  0.00    +0.292 HD
ENDBRANCH   3  32
TORSDOF 5
ENDMDL
MODEL 5
REMARK VINA RESULT:    -8.141      0.733      2.471
REMARK INTER + INTRA:          -9.054
REMARK INTER:                  -9.697
REMARK INTRA:                   0.643
REMARK UNBOUND:                 1.228
REMARK  Name = ZINC000006418967
REMARK  11 active torsions:
REMARK  status: ('A' for Active; 'I' for Inactive)
REMARK    1  A    between atoms: C_1  and  O_2
REMARK    2  A    between atoms: O_2  and  C_3
REMARK    3  A    between atoms: C_5  and  O_6
REMARK    4  A    between atoms: C_7  and  C_8
REMARK    5  A    between atoms: C_9  and  C_10
REMARK    6  A    between atoms: C_12  and  O_13
REMARK    7  A    between atoms: O_13  and  C_14
REMARK    8  A    between atoms: C_16  and  O_17
REMARK    9  A    between atoms: O_17  and  C_18
REMARK   10  A    between atoms: C_25  and  C_26
REMARK   11  A    between atoms: C_28  and  C_29
REMARK                            x       y       z     vdW  Elec       q    Type
REMARK                         _______ _______ _______ _____ _____    ______ ____
ROOT
ATOM      1  C   UNL     1      -3.652   3.396 -24.624  0.00  0.00    +0.132 A 
ATOM      2  C   UNL     1      -2.687   3.380 -25.496  0.00  0.00    +0.092 A 
ATOM      3  C   UNL     1      -1.453   3.488 -25.102  0.00  0.00    +0.128 A 
ATOM      4  C   UNL     1      -1.184   3.611 -23.836  0.00  0.00    +0.028 A 
ATOM      5  C   UNL     1      -2.148   3.627 -22.964  0.00  0.00    -0.019 A 
ATOM      6  C   UNL     1      -1.879   3.750 -21.699  0.00  0.00    +0.090 C 
ATOM      7  C   UNL     1      -2.843   3.766 -20.828  0.00  0.00    +0.064 C 
ATOM      8  C   UNL     1      -2.574   3.890 -19.561  0.00  0.00    +0.064 C 
ATOM      9  N   UNL     1      -4.077   3.659 -21.222  0.00  0.00    +0.235 N 
ATOM     10  H   UNL     1      -4.479   4.566 -20.983  0.00  0.00    +0.202 HD
ATOM     11  H   UNL     1      -4.465   2.838 -20.756  0.00  0.00    +0.202 HD
ATOM     12  C   UNL     1      -4.347   3.536 -22.488  0.00  0.00    +0.095 C 
ATOM     13  C   UNL     1      -5.581   3.428 -22.882  0.00  0.00    +0.069 C 
ATOM     14  C   UNL     1      -3.382   3.520 -23.359  0.00  0.00    +0.045 A 
ENDROOT
BRANCH   4  15
ATOM     15  C   UNL     1       0.050   3.718 -23.442  0.00  0.00    -0.003 A 
ATOM     16  C   UNL     1       0.634   4.881 -23.441  0.00  0.00    -0.039 A 
ATOM     17  C   UNL     1       1.868   4.988 -23.047  0.00  0.00    +0.050 A 
ATOM     18  C   UNL     1       2.519   3.933 -22.653  0.00  0.00    +0.132 A 
ATOM     19  C   UNL     1       1.935   2.772 -22.653  0.00  0.00    +0.066 A 
ATOM     20  C   UNL     1       2.585   1.718 -22.260  0.00  0.00    +0.131 A 
ATOM     21  C   UNL     1       2.002   0.555 -22.260  0.00  0.00    +0.046 A 
ATOM     22  C   UNL     1       0.768   0.448 -22.654  0.00  0.00    +0.004 A 
ATOM     23  C   UNL     1       0.117   1.503 -23.048  0.00  0.00    +0.009 A 
ATOM     24  C   UNL     1      -0.016   5.935 -23.835  0.00  0.00    +0.044 C 
ATOM     25  C   UNL     1       0.701   2.664 -23.048  0.00  0.00    -0.003 A 
BRANCH  20  26
ATOM     26  O   UNL     1       3.819   1.825 -21.865  0.00  0.00    -0.494 OA
ATOM     27  C   UNL     1       4.365   0.872 -21.167  0.00  0.00    +0.277 C 
ENDBRANCH  20  26
BRANCH  18  28
ATOM     28  O   UNL     1       3.753   4.040 -22.258  0.00  0.00    -0.494 OA
ATOM     29  C   UNL     1       4.598   4.743 -22.952  0.00  0.00    +0.277 C 
ENDBRANCH  18  28
ENDBRANCH   4  15
BRANCH   1  31
ATOM     30  C   UNL     1      -5.150   3.012 -26.261  0.00  0.00    +0.277 C 
ATOM     31  O   UNL     1      -4.886   3.289 -25.019  0.00  0.00    -0.495 OA
ENDBRANCH   1  31
BRANCH   3  32
ATOM     32  O   UNL     1      -0.489   3.472 -25.973  0.00  0.00    -0.506 OA
ATOM     33  H   UNL     1       0.082   2.731 -26.026  0.00  0.00    +0.292 HD
ENDBRANCH   3  32
TORSDOF 5
ENDMDL
MODEL 6
REMARK VINA RESULT:    -6.997      2.503      6.918
REMARK INTER + INTRA:          -7.610
REMARK INTER:                  -8.920
REMARK INTRA:                   1.310
REMARK UNBOUND:                 1.228
REMARK  Name = ZINC000006418967
REMARK  11 active torsions:
REMARK  status: ('A' for Active; 'I' for Inactive)
REMARK    1  A    between atoms: C_1  and  O_2
REMARK    2  A    between atoms: O_2  and  C_3
REMARK    3  A    between atoms: C_5  and  O_6
REMARK    4  A    between atoms: C_7  and  C_8
REMARK    5  A    between atoms: C_9  and  C_10
REMARK    6  A    between atoms: C_12  and  O_13
REMARK    7  A    between atoms: O_13  and  C_14
REMARK    8  A    between atoms: C_16  and  O_17
REMARK    9  A    between atoms: O_17  and  C_18
REMARK   10  A    between atoms: C_25  and  C_26
REMARK   11  A    between atoms: C_28  and  C_29
REMARK                            x       y       z     vdW  Elec       q    Type
REMARK                         _______ _______ _______ _____ _____    ______ ____
ROOT
ATOM      1  C   UNL     1       5.980   2.885 -23.195  0.00  0.00    +0.132 A 
ATOM      2  C   UNL     1       5.423   1.714 -23.298  0.00  0.00    +0.092 A 
ATOM      3  C   UNL     1       4.134   1.596 -23.184  0.00  0.00    +0.128 A 
ATOM      4  C   UNL     1       3.401   2.647 -22.966  0.00  0.00    +0.028 A 
ATOM      5  C   UNL     1       3.958   3.818 -22.863  0.00  0.00    -0.019 A 
ATOM      6  C   UNL     1       3.225   4.869 -22.645  0.00  0.00    +0.090 C 
ATOM      7  C   UNL     1       3.782   6.039 -22.542  0.00  0.00    +0.064 C 
ATOM      8  C   UNL     1       3.049   7.091 -22.325  0.00  0.00    +0.064 C 
ATOM      9  N   UNL     1       5.072   6.157 -22.657  0.00  0.00    +0.235 N 
ATOM     10  H   UNL     1       5.363   6.458 -21.727  0.00  0.00    +0.202 HD
ATOM     11  H   UNL     1       5.241   6.800 -23.431  0.00  0.00    +0.202 HD
ATOM     12  C   UNL     1       5.804   5.106 -22.875  0.00  0.00    +0.095 C 
ATOM     13  C   UNL     1       7.094   5.224 -22.989  0.00  0.00    +0.069 C 
ATOM     14  C   UNL     1       5.247   3.936 -22.978  0.00  0.00    +0.045 A 
ENDROOT
BRANCH   4  15
ATOM     15  C   UNL     1       2.112   2.529 -22.851  0.00  0.00    -0.003 A 
ATOM     16  C   UNL     1       1.599   2.016 -21.771  0.00  0.00    -0.039 A 
ATOM     17  C   UNL     1       0.310   1.897 -21.657  0.00  0.00    +0.050 A 
ATOM     18  C   UNL     1      -0.467   2.292 -22.622  0.00  0.00    +0.132 A 
ATOM     19  C   UNL     1       0.045   2.804 -23.701  0.00  0.00    +0.066 A 
ATOM     20  C   UNL     1      -0.732   3.198 -24.666  0.00  0.00    +0.131 A 
ATOM     21  C   UNL     1      -0.221   3.711 -25.745  0.00  0.00    +0.046 A 
ATOM     22  C   UNL     1       1.069   3.829 -25.860  0.00  0.00    +0.004 A 
ATOM     23  C   UNL     1       1.847   3.435 -24.895  0.00  0.00    +0.009 A 
ATOM     24  C   UNL     1       2.376   1.622 -20.807  0.00  0.00    +0.044 C 
ATOM     25  C   UNL     1       1.334   2.923 -23.816  0.00  0.00    -0.003 A 
BRANCH  20  26
ATOM     26  O   UNL     1      -2.022   3.080 -24.551  0.00  0.00    -0.494 OA
ATOM     27  C   UNL     1      -2.784   3.227 -25.595  0.00  0.00    +0.277 C 
ENDBRANCH  20  26
BRANCH  18  28
ATOM     28  O   UNL     1      -1.757   2.173 -22.507  0.00  0.00    -0.494 OA
ATOM     29  C   UNL     1      -2.321   2.306 -21.344  0.00  0.00    +0.277 C 
ENDBRANCH  18  28
ENDBRANCH   4  15
BRANCH   1  31
ATOM     30  C   UNL     1       7.987   1.981 -23.669  0.00  0.00    +0.277 C 
ATOM     31  O   UNL     1       7.269   3.003 -23.310  0.00  0.00    -0.495 OA
ENDBRANCH   1  31
BRANCH   3  32
ATOM     32  O   UNL     1       3.577   0.426 -23.287  0.00  0.00    -0.506 OA
ATOM     33  H   UNL     1       3.308  -0.035 -22.516  0.00  0.00    +0.292 HD
ENDBRANCH   3  32
TORSDOF 5
ENDMDL
