MODEL 1
REMARK VINA RESULT:   -10.872      0.000      0.000
REMARK INTER + INTRA:          -8.477
REMARK INTER:                 -11.833
REMARK INTRA:                   3.357
REMARK UNBOUND:                 3.349
REMARK  Name = ZINC000012725849
REMARK  4 active torsions:
REMARK  status: ('A' for Active; 'I' for Inactive)
REMARK    1  A    between atoms: C_1  and  C_2
REMARK    2  A    between atoms: C_2  and  C_3
REMARK    3  A    between atoms: C_9  and  C_10
REMARK    4  A    between atoms: C_13  and  O_14
REMARK                            x       y       z     vdW  Elec       q    Type
REMARK                         _______ _______ _______ _____ _____    ______ ____
ROOT
ATOM      1  C   UNL     1      -5.587   4.039 -24.085  0.00  0.00    +0.017 C 
ATOM      2  C   UNL     1      -4.433   3.622 -23.653  0.00  0.00    +0.011 C 
ATOM      3  C   UNL     1      -5.167   3.459 -22.595  0.00  0.00    +0.013 C 
ATOM      4  C   UNL     1      -4.635   2.984 -21.514  0.00  0.00    +0.002 C 
ATOM      5  C   UNL     1      -3.373   2.671 -21.489  0.00  0.00    +0.011 C 
ATOM      6  C   UNL     1      -2.642   2.836 -22.549  0.00  0.00    -0.003 C 
ATOM      7  C   UNL     1      -1.380   2.524 -22.525  0.00  0.00    -0.035 A 
ATOM      8  C   UNL     1      -0.850   2.048 -21.442  0.00  0.00    +0.049 A 
ATOM      9  C   UNL     1       0.410   1.739 -21.424  0.00  0.00    +0.117 A 
ATOM     10  C   UNL     1       1.141   1.904 -22.485  0.00  0.00    +0.045 A 
ATOM     11  C   UNL     1       0.607   2.379 -23.565  0.00  0.00    +0.007 A 
ATOM     12  C   UNL     1      -0.655   2.690 -23.587  0.00  0.00    -0.043 A 
ATOM     13  C   UNL     1      -1.186   3.166 -24.668  0.00  0.00    +0.036 C 
ATOM     14  C   UNL     1      -2.446   3.476 -24.689  0.00  0.00    +0.010 C 
ATOM     15  C   UNL     1      -2.112   2.359 -21.462  0.00  0.00    +0.016 C 
ATOM     16  C   UNL     1      -3.170   3.311 -23.633  0.00  0.00    +0.011 C 
ENDROOT
BRANCH   2  17
ATOM     17  C   UNL     1      -4.133   3.956 -24.917  0.00  0.00    +0.048 C 
ATOM     18  O   UNL     1      -3.754   5.161 -25.225  0.00  0.00    -0.549 OA
ATOM     19  O   UNL     1      -4.220   3.061 -25.855  0.00  0.00    -0.549 OA
ENDBRANCH   2  17
BRANCH   9  20
ATOM     20  O   UNL     1       0.945   1.262 -20.339  0.00  0.00    -0.507 OA
ATOM     21  H   UNL     1       0.405   0.856 -19.690  0.00  0.00    +0.292 HD
ENDBRANCH   9  20
TORSDOF 2
ENDMDL
MODEL 2
REMARK VINA RESULT:   -10.690      2.142      3.341
REMARK INTER + INTRA:          -8.279
REMARK INTER:                 -11.675
REMARK INTRA:                   3.396
REMARK UNBOUND:                 3.349
REMARK  Name = ZINC000012725849
REMARK  4 active torsions:
REMARK  status: ('A' for Active; 'I' for Inactive)
REMARK    1  A    between atoms: C_1  and  C_2
REMARK    2  A    between atoms: C_2  and  C_3
REMARK    3  A    between atoms: C_9  and  C_10
REMARK    4  A    between atoms: C_13  and  O_14
REMARK                            x       y       z     vdW  Elec       q    Type
REMARK                         _______ _______ _______ _____ _____    ______ ____
ROOT
ATOM      1  C   UNL     1      -5.688   3.370 -22.121  0.00  0.00    +0.017 C 
ATOM      2  C   UNL     1      -4.487   3.395 -22.619  0.00  0.00    +0.011 C 
ATOM      3  C   UNL     1      -5.190   3.755 -23.649  0.00  0.00    +0.013 C 
ATOM      4  C   UNL     1      -4.596   4.015 -24.770  0.00  0.00    +0.002 C 
ATOM      5  C   UNL     1      -3.302   3.916 -24.863  0.00  0.00    +0.011 C 
ATOM      6  C   UNL     1      -2.603   3.556 -23.831  0.00  0.00    -0.003 C 
ATOM      7  C   UNL     1      -1.309   3.457 -23.923  0.00  0.00    -0.035 A 
ATOM      8  C   UNL     1      -0.717   3.718 -25.046  0.00  0.00    +0.049 A 
ATOM      9  C   UNL     1       0.574   3.617 -25.131  0.00  0.00    +0.117 A 
ATOM     10  C   UNL     1       1.273   3.256 -24.097  0.00  0.00    +0.045 A 
ATOM     11  C   UNL     1       0.677   2.997 -22.978  0.00  0.00    +0.007 A 
ATOM     12  C   UNL     1      -0.616   3.097 -22.888  0.00  0.00    -0.043 A 
ATOM     13  C   UNL     1      -1.210   2.837 -21.766  0.00  0.00    +0.036 C 
ATOM     14  C   UNL     1      -2.500   2.937 -21.678  0.00  0.00    +0.010 C 
ATOM     15  C   UNL     1      -2.011   3.818 -24.958  0.00  0.00    +0.016 C 
ATOM     16  C   UNL     1      -3.193   3.295 -22.707  0.00  0.00    +0.011 C 
ENDROOT
BRANCH   2  17
ATOM     17  C   UNL     1      -4.238   3.014 -21.357  0.00  0.00    +0.048 C 
ATOM     18  O   UNL     1      -4.323   1.766 -21.000  0.00  0.00    -0.549 OA
ATOM     19  O   UNL     1      -3.905   3.904 -20.472  0.00  0.00    -0.549 OA
ENDBRANCH   2  17
BRANCH   9  20
ATOM     20  O   UNL     1       1.171   3.878 -26.256  0.00  0.00    -0.507 OA
ATOM     21  H   UNL     1       2.047   3.582 -26.402  0.00  0.00    +0.292 HD
ENDBRANCH   9  20
TORSDOF 2
ENDMDL
MODEL 3
REMARK VINA RESULT:   -10.096      1.821      4.734
REMARK INTER + INTRA:          -7.632
REMARK INTER:                 -11.006
REMARK INTRA:                   3.374
REMARK UNBOUND:                 3.349
REMARK  Name = ZINC000012725849
REMARK  4 active torsions:
REMARK  status: ('A' for Active; 'I' for Inactive)
REMARK    1  A    between atoms: C_1  and  C_2
REMARK    2  A    between atoms: C_2  and  C_3
REMARK    3  A    between atoms: C_9  and  C_10
REMARK    4  A    between atoms: C_13  and  O_14
REMARK                            x       y       z     vdW  Elec       q    Type
REMARK                         _______ _______ _______ _____ _____    ______ ____
ROOT
ATOM      1  C   UNL     1       1.896   1.954 -22.670  0.00  0.00    +0.017 C 
ATOM      2  C   UNL     1       0.652   2.296 -22.828  0.00  0.00    +0.011 C 
ATOM      3  C   UNL     1       0.606   1.719 -21.666  0.00  0.00    +0.013 C 
ATOM      4  C   UNL     1      -0.523   1.638 -21.036  0.00  0.00    +0.002 C 
ATOM      5  C   UNL     1      -1.604   2.133 -21.564  0.00  0.00    +0.011 C 
ATOM      6  C   UNL     1      -1.553   2.709 -22.726  0.00  0.00    -0.003 C 
ATOM      7  C   UNL     1      -2.634   3.205 -23.255  0.00  0.00    -0.035 A 
ATOM      8  C   UNL     1      -3.762   3.123 -22.623  0.00  0.00    +0.049 A 
ATOM      9  C   UNL     1      -4.836   3.619 -23.156  0.00  0.00    +0.117 A 
ATOM     10  C   UNL     1      -4.784   4.195 -24.319  0.00  0.00    +0.045 A 
ATOM     11  C   UNL     1      -3.655   4.275 -24.947  0.00  0.00    +0.007 A 
ATOM     12  C   UNL     1      -2.577   3.779 -24.416  0.00  0.00    -0.043 A 
ATOM     13  C   UNL     1      -1.448   3.860 -25.047  0.00  0.00    +0.036 C 
ATOM     14  C   UNL     1      -0.373   3.365 -24.516  0.00  0.00    +0.010 C 
ATOM     15  C   UNL     1      -2.684   2.627 -22.090  0.00  0.00    +0.016 C 
ATOM     16  C   UNL     1      -0.426   2.792 -23.360  0.00  0.00    +0.011 C 
ENDROOT
BRANCH   2  17
ATOM     17  C   UNL     1       1.194   2.756 -23.965  0.00  0.00    +0.048 C 
ATOM     18  O   UNL     1       1.329   1.990 -25.007  0.00  0.00    -0.549 OA
ATOM     19  O   UNL     1       1.593   3.991 -24.032  0.00  0.00    -0.549 OA
ENDBRANCH   2  17
BRANCH   9  20
ATOM     20  O   UNL     1      -5.969   3.538 -22.524  0.00  0.00    -0.507 OA
ATOM     21  H   UNL     1      -6.586   2.870 -22.750  0.00  0.00    +0.292 HD
ENDBRANCH   9  20
TORSDOF 2
ENDMDL
MODEL 4
REMARK VINA RESULT:   -10.058      1.373      5.230
REMARK INTER + INTRA:          -7.591
REMARK INTER:                 -10.936
REMARK INTRA:                   3.345
REMARK UNBOUND:                 3.349
REMARK  Name = ZINC000012725849
REMARK  4 active torsions:
REMARK  status: ('A' for Active; 'I' for Inactive)
REMARK    1  A    between atoms: C_1  and  C_2
REMARK    2  A    between atoms: C_2  and  C_3
REMARK    3  A    between atoms: C_9  and  C_10
REMARK    4  A    between atoms: C_13  and  O_14
REMARK                            x       y       z     vdW  Elec       q    Type
REMARK                         _______ _______ _______ _____ _____    ______ ____
ROOT
ATOM      1  C   UNL     1       2.217   2.569 -24.405  0.00  0.00    +0.017 C 
ATOM      2  C   UNL     1       0.979   2.694 -24.029  0.00  0.00    +0.011 C 
ATOM      3  C   UNL     1       0.943   3.263 -25.195  0.00  0.00    +0.013 C 
ATOM      4  C   UNL     1      -0.174   3.750 -25.635  0.00  0.00    +0.002 C 
ATOM      5  C   UNL     1      -1.253   3.669 -24.912  0.00  0.00    +0.011 C 
ATOM      6  C   UNL     1      -1.212   3.099 -23.747  0.00  0.00    -0.003 C 
ATOM      7  C   UNL     1      -2.290   3.018 -23.023  0.00  0.00    -0.035 A 
ATOM      8  C   UNL     1      -3.406   3.506 -23.466  0.00  0.00    +0.049 A 
ATOM      9  C   UNL     1      -4.478   3.422 -22.739  0.00  0.00    +0.117 A 
ATOM     10  C   UNL     1      -4.436   2.852 -21.573  0.00  0.00    +0.045 A 
ATOM     11  C   UNL     1      -3.319   2.366 -21.135  0.00  0.00    +0.007 A 
ATOM     12  C   UNL     1      -2.243   2.448 -21.860  0.00  0.00    -0.043 A 
ATOM     13  C   UNL     1      -1.126   1.961 -21.419  0.00  0.00    +0.036 C 
ATOM     14  C   UNL     1      -0.053   2.044 -22.144  0.00  0.00    +0.010 C 
ATOM     15  C   UNL     1      -2.331   3.589 -24.192  0.00  0.00    +0.016 C 
ATOM     16  C   UNL     1      -0.097   2.611 -23.302  0.00  0.00    +0.011 C 
ENDROOT
BRANCH   2  17
ATOM     17  C   UNL     1       1.508   2.057 -22.974  0.00  0.00    +0.048 C 
ATOM     18  O   UNL     1       1.485   0.759 -22.888  0.00  0.00    -0.549 OA
ATOM     19  O   UNL     1       2.056   2.744 -22.017  0.00  0.00    -0.549 OA
ENDBRANCH   2  17
BRANCH   9  20
ATOM     20  O   UNL     1      -5.599   3.911 -23.180  0.00  0.00    -0.507 OA
ATOM     21  H   UNL     1      -6.408   3.485 -22.978  0.00  0.00    +0.292 HD
ENDBRANCH   9  20
TORSDOF 2
ENDMDL
MODEL 5
REMARK VINA RESULT:    -9.315      2.060      3.312
REMARK INTER + INTRA:          -6.783
REMARK INTER:                 -10.122
REMARK INTRA:                   3.339
REMARK UNBOUND:                 3.349
REMARK  Name = ZINC000012725849
REMARK  4 active torsions:
REMARK  status: ('A' for Active; 'I' for Inactive)
REMARK    1  A    between atoms: C_1  and  C_2
REMARK    2  A    between atoms: C_2  and  C_3
REMARK    3  A    between atoms: C_9  and  C_10
REMARK    4  A    between atoms: C_13  and  O_14
REMARK                            x       y       z     vdW  Elec       q    Type
REMARK                         _______ _______ _______ _____ _____    ______ ____
ROOT
ATOM      1  C   UNL     1      -4.465   3.670 -22.444  0.00  0.00    +0.017 C 
ATOM      2  C   UNL     1      -3.227   3.348 -22.673  0.00  0.00    +0.011 C 
ATOM      3  C   UNL     1      -3.562   3.873 -23.813  0.00  0.00    +0.013 C 
ATOM      4  C   UNL     1      -2.691   3.936 -24.770  0.00  0.00    +0.002 C 
ATOM      5  C   UNL     1      -1.487   3.475 -24.590  0.00  0.00    +0.011 C 
ATOM      6  C   UNL     1      -1.156   2.951 -23.449  0.00  0.00    -0.003 C 
ATOM      7  C   UNL     1       0.047   2.491 -23.269  0.00  0.00    -0.035 A 
ATOM      8  C   UNL     1       0.916   2.555 -24.228  0.00  0.00    +0.049 A 
ATOM      9  C   UNL     1       2.115   2.094 -24.041  0.00  0.00    +0.117 A 
ATOM     10  C   UNL     1       2.446   1.569 -22.900  0.00  0.00    +0.045 A 
ATOM     11  C   UNL     1       1.573   1.508 -21.945  0.00  0.00    +0.007 A 
ATOM     12  C   UNL     1       0.372   1.968 -22.127  0.00  0.00    -0.043 A 
ATOM     13  C   UNL     1      -0.499   1.905 -21.170  0.00  0.00    +0.036 C 
ATOM     14  C   UNL     1      -1.698   2.366 -21.354  0.00  0.00    +0.010 C 
ATOM     15  C   UNL     1      -0.285   3.016 -24.412  0.00  0.00    +0.016 C 
ATOM     16  C   UNL     1      -2.024   2.886 -22.489  0.00  0.00    +0.011 C 
ENDROOT
BRANCH   2  17
ATOM     17  C   UNL     1      -3.372   2.934 -21.406  0.00  0.00    +0.048 C 
ATOM     18  O   UNL     1      -3.791   1.733 -21.132  0.00  0.00    -0.549 OA
ATOM     19  O   UNL     1      -3.091   3.744 -20.430  0.00  0.00    -0.549 OA
ENDBRANCH   2  17
BRANCH   9  20
ATOM     20  O   UNL     1       2.989   2.156 -25.001  0.00  0.00    -0.507 OA
ATOM     21  H   UNL     1       3.875   2.398 -24.814  0.00  0.00    +0.292 HD
ENDBRANCH   9  20
TORSDOF 2
ENDMDL
MODEL 6
REMARK VINA RESULT:    -8.958      2.892      5.022
REMARK INTER + INTRA:          -6.394
REMARK INTER:                  -9.732
REMARK INTRA:                   3.338
REMARK UNBOUND:                 3.349
REMARK  Name = ZINC000012725849
REMARK  4 active torsions:
REMARK  status: ('A' for Active; 'I' for Inactive)
REMARK    1  A    between atoms: C_1  and  C_2
REMARK    2  A    between atoms: C_2  and  C_3
REMARK    3  A    between atoms: C_9  and  C_10
REMARK    4  A    between atoms: C_13  and  O_14
REMARK                            x       y       z     vdW  Elec       q    Type
REMARK                         _______ _______ _______ _____ _____    ______ ____
ROOT
ATOM      1  C   UNL     1      -1.133   4.281 -23.371  0.00  0.00    +0.017 C 
ATOM      2  C   UNL     1       0.048   3.793 -23.127  0.00  0.00    +0.011 C 
ATOM      3  C   UNL     1       0.356   4.959 -23.608  0.00  0.00    +0.013 C 
ATOM      4  C   UNL     1       1.601   5.301 -23.711  0.00  0.00    +0.002 C 
ATOM      5  C   UNL     1       2.537   4.480 -23.334  0.00  0.00    +0.011 C 
ATOM      6  C   UNL     1       2.225   3.315 -22.854  0.00  0.00    -0.003 C 
ATOM      7  C   UNL     1       3.161   2.494 -22.477  0.00  0.00    -0.035 A 
ATOM      8  C   UNL     1       4.406   2.839 -22.581  0.00  0.00    +0.049 A 
ATOM      9  C   UNL     1       5.335   2.014 -22.203  0.00  0.00    +0.117 A 
ATOM     10  C   UNL     1       5.022   0.849 -21.723  0.00  0.00    +0.045 A 
ATOM     11  C   UNL     1       3.777   0.510 -21.621  0.00  0.00    +0.007 A 
ATOM     12  C   UNL     1       2.843   1.332 -21.998  0.00  0.00    -0.043 A 
ATOM     13  C   UNL     1       1.598   0.990 -21.895  0.00  0.00    +0.036 C 
ATOM     14  C   UNL     1       0.668   1.812 -22.272  0.00  0.00    +0.010 C 
ATOM     15  C   UNL     1       3.474   3.662 -22.959  0.00  0.00    +0.016 C 
ATOM     16  C   UNL     1       0.981   2.969 -22.749  0.00  0.00    +0.011 C 
ENDROOT
BRANCH   2  17
ATOM     17  C   UNL     1      -0.739   2.783 -22.727  0.00  0.00    +0.048 C 
ATOM     18  O   UNL     1      -1.175   2.711 -21.504  0.00  0.00    -0.549 OA
ATOM     19  O   UNL     1      -1.074   1.856 -23.574  0.00  0.00    -0.549 OA
ENDBRANCH   2  17
BRANCH   9  20
ATOM     20  O   UNL     1       6.585   2.357 -22.306  0.00  0.00    -0.507 OA
ATOM     21  H   UNL     1       7.003   2.823 -21.610  0.00  0.00    +0.292 HD
ENDBRANCH   9  20
TORSDOF 2
ENDMDL
MODEL 7
REMARK VINA RESULT:    -8.080      2.760      6.864
REMARK INTER + INTRA:          -5.439
REMARK INTER:                  -8.796
REMARK INTRA:                   3.357
REMARK UNBOUND:                 3.349
REMARK  Name = ZINC000012725849
REMARK  4 active torsions:
REMARK  status: ('A' for Active; 'I' for Inactive)
REMARK    1  A    between atoms: C_1  and  C_2
REMARK    2  A    between atoms: C_2  and  C_3
REMARK    3  A    between atoms: C_9  and  C_10
REMARK    4  A    between atoms: C_13  and  O_14
REMARK                            x       y       z     vdW  Elec       q    Type
REMARK                         _______ _______ _______ _____ _____    ______ ____
ROOT
ATOM      1  C   UNL     1       5.689   2.659 -22.275  0.00  0.00    +0.017 C 
ATOM      2  C   UNL     1       4.414   2.826 -22.463  0.00  0.00    +0.011 C 
ATOM      3  C   UNL     1       4.872   3.984 -22.827  0.00  0.00    +0.013 C 
ATOM      4  C   UNL     1       4.050   4.899 -23.234  0.00  0.00    +0.002 C 
ATOM      5  C   UNL     1       2.773   4.658 -23.278  0.00  0.00    +0.011 C 
ATOM      6  C   UNL     1       2.319   3.498 -22.912  0.00  0.00    -0.003 C 
ATOM      7  C   UNL     1       1.041   3.256 -22.955  0.00  0.00    -0.035 A 
ATOM      8  C   UNL     1       0.221   4.173 -23.363  0.00  0.00    +0.049 A 
ATOM      9  C   UNL     1      -1.053   3.925 -23.404  0.00  0.00    +0.117 A 
ATOM     10  C   UNL     1      -1.507   2.764 -23.038  0.00  0.00    +0.045 A 
ATOM     11  C   UNL     1      -0.683   1.851 -22.631  0.00  0.00    +0.007 A 
ATOM     12  C   UNL     1       0.593   2.095 -22.589  0.00  0.00    -0.043 A 
ATOM     13  C   UNL     1       1.415   1.181 -22.182  0.00  0.00    +0.036 C 
ATOM     14  C   UNL     1       2.688   1.426 -22.140  0.00  0.00    +0.010 C 
ATOM     15  C   UNL     1       1.497   4.419 -23.322  0.00  0.00    +0.016 C 
ATOM     16  C   UNL     1       3.137   2.580 -22.504  0.00  0.00    +0.011 C 
ENDROOT
BRANCH   2  17
ATOM     17  C   UNL     1       4.447   1.563 -22.012  0.00  0.00    +0.048 C 
ATOM     18  O   UNL     1       4.547   0.557 -22.830  0.00  0.00    -0.549 OA
ATOM     19  O   UNL     1       4.377   1.336 -20.735  0.00  0.00    -0.549 OA
ENDBRANCH   2  17
BRANCH   9  20
ATOM     20  O   UNL     1      -1.878   4.843 -23.812  0.00  0.00    -0.507 OA
ATOM     21  H   UNL     1      -1.610   5.740 -23.831  0.00  0.00    +0.292 HD
ENDBRANCH   9  20
TORSDOF 2
ENDMDL
