MODEL 1
REMARK VINA RESULT:   -10.630      0.000      0.000
REMARK INTER + INTRA:         -10.940
REMARK INTER:                 -10.940
REMARK INTRA:                   0.000
REMARK UNBOUND:                 0.000
REMARK  Name = C=C1C(=O)O[C@@H]2C=C(C)[C@@H](O)CC=C(C)CC[C@@H]12                    ZINC001081701743
REMARK  3 active torsions:
REMARK  status: ('A' for Active; 'I' for Inactive)
REMARK    1  A    between atoms: C_8  and  C_9
REMARK    2  A    between atoms: C_10  and  O_11
REMARK    3  A    between atoms: C_14  and  C_15
REMARK                            x       y       z     vdW  Elec       q    Type
REMARK                         _______ _______ _______ _____ _____    ______ ____
ROOT
ATOM      1  C   UNL     1       0.550   1.506 -21.132  0.00  0.00    +0.020 C 
ATOM      2  C   UNL     1      -0.183   1.945 -22.112  0.00  0.00    +0.036 C 
ATOM      3  C   UNL     1       0.209   2.118 -23.339  0.00  0.00    +0.336 C 
ATOM      4  O   UNL     1      -0.803   2.568 -24.022  0.00  0.00    -0.453 OA
ATOM      5  C   UNL     1      -1.818   2.673 -23.217  0.00  0.00    +0.207 C 
ATOM      6  C   UNL     1      -3.041   3.069 -23.406  0.00  0.00    +0.019 C 
ATOM      7  C   UNL     1      -3.424   3.455 -24.587  0.00  0.00    -0.045 C 
ATOM      8  C   UNL     1      -4.646   3.851 -24.779  0.00  0.00    +0.144 C 
ATOM      9  C   UNL     1      -5.488   3.863 -23.787  0.00  0.00    +0.063 C 
ATOM     10  C   UNL     1      -5.106   3.478 -22.606  0.00  0.00    -0.025 C 
ATOM     11  C   UNL     1      -3.883   3.081 -22.417  0.00  0.00    -0.076 C 
ATOM     12  C   UNL     1      -3.500   2.696 -21.235  0.00  0.00    +0.031 C 
ATOM     13  C   UNL     1      -2.275   2.300 -21.046  0.00  0.00    +0.016 C 
ATOM     14  C   UNL     1      -4.723   3.092 -21.424  0.00  0.00    +0.039 C 
ATOM     15  C   UNL     1      -2.581   3.443 -25.579  0.00  0.00    +0.041 C 
ATOM     16  O   UNL     1       1.399   1.883 -23.802  0.00  0.00    -0.245 OA
ATOM     17  C   UNL     1      -1.435   2.288 -22.036  0.00  0.00    +0.070 C 
ENDROOT
BRANCH   8  18
ATOM     18  O   UNL     1      -5.029   4.236 -25.960  0.00  0.00    -0.387 OA
ATOM     19  H   UNL     1      -5.788   3.704 -26.244  0.00  0.00    +0.210 HD
ENDBRANCH   8  18
TORSDOF 1
ENDMDL
MODEL 2
REMARK VINA RESULT:   -10.386      1.626      2.829
REMARK INTER + INTRA:         -10.689
REMARK INTER:                 -10.689
REMARK INTRA:                   0.000
REMARK UNBOUND:                 0.000
REMARK  Name = C=C1C(=O)O[C@@H]2C=C(C)[C@@H](O)CC=C(C)CC[C@@H]12                    ZINC001081701743
REMARK  3 active torsions:
REMARK  status: ('A' for Active; 'I' for Inactive)
REMARK    1  A    between atoms: C_8  and  C_9
REMARK    2  A    between atoms: C_10  and  O_11
REMARK    3  A    between atoms: C_14  and  C_15
REMARK                            x       y       z     vdW  Elec       q    Type
REMARK                         _______ _______ _______ _____ _____    ______ ____
ROOT
ATOM      1  C   UNL     1       1.352   2.219 -23.164  0.00  0.00    +0.020 C 
ATOM      2  C   UNL     1       0.137   2.283 -22.704  0.00  0.00    +0.036 C 
ATOM      3  C   UNL     1      -0.259   1.874 -21.536  0.00  0.00    +0.336 C 
ATOM      4  O   UNL     1      -1.535   2.105 -21.443  0.00  0.00    -0.453 OA
ATOM      5  C   UNL     1      -1.927   2.656 -22.553  0.00  0.00    +0.207 C 
ATOM      6  C   UNL     1      -3.091   3.072 -22.954  0.00  0.00    +0.019 C 
ATOM      7  C   UNL     1      -4.125   2.962 -22.174  0.00  0.00    -0.045 C 
ATOM      8  C   UNL     1      -5.290   3.378 -22.573  0.00  0.00    +0.144 C 
ATOM      9  C   UNL     1      -5.421   3.904 -23.755  0.00  0.00    +0.063 C 
ATOM     10  C   UNL     1      -4.388   4.015 -24.535  0.00  0.00    -0.025 C 
ATOM     11  C   UNL     1      -3.224   3.599 -24.135  0.00  0.00    -0.076 C 
ATOM     12  C   UNL     1      -2.190   3.709 -24.915  0.00  0.00    +0.031 C 
ATOM     13  C   UNL     1      -1.025   3.293 -24.513  0.00  0.00    +0.016 C 
ATOM     14  C   UNL     1      -3.353   4.125 -25.316  0.00  0.00    +0.039 C 
ATOM     15  C   UNL     1      -3.993   2.435 -20.991  0.00  0.00    +0.041 C 
ATOM     16  O   UNL     1       0.488   1.330 -20.623  0.00  0.00    -0.245 OA
ATOM     17  C   UNL     1      -0.893   2.767 -23.333  0.00  0.00    +0.070 C 
ENDROOT
BRANCH   8  18
ATOM     18  O   UNL     1      -6.324   3.267 -21.793  0.00  0.00    -0.387 OA
ATOM     19  H   UNL     1      -6.222   2.486 -21.229  0.00  0.00    +0.210 HD
ENDBRANCH   8  18
TORSDOF 1
ENDMDL
MODEL 3
REMARK VINA RESULT:    -9.701      1.346      4.449
REMARK INTER + INTRA:          -9.984
REMARK INTER:                  -9.984
REMARK INTRA:                   0.000
REMARK UNBOUND:                 0.000
REMARK  Name = C=C1C(=O)O[C@@H]2C=C(C)[C@@H](O)CC=C(C)CC[C@@H]12                    ZINC001081701743
REMARK  3 active torsions:
REMARK  status: ('A' for Active; 'I' for Inactive)
REMARK    1  A    between atoms: C_8  and  C_9
REMARK    2  A    between atoms: C_10  and  O_11
REMARK    3  A    between atoms: C_14  and  C_15
REMARK                            x       y       z     vdW  Elec       q    Type
REMARK                         _______ _______ _______ _____ _____    ______ ____
ROOT
ATOM      1  C   UNL     1      -5.167   2.990 -21.445  0.00  0.00    +0.020 C 
ATOM      2  C   UNL     1      -4.264   3.133 -22.370  0.00  0.00    +0.036 C 
ATOM      3  C   UNL     1      -4.457   3.630 -23.555  0.00  0.00    +0.336 C 
ATOM      4  O   UNL     1      -3.322   3.608 -24.188  0.00  0.00    -0.453 OA
ATOM      5  C   UNL     1      -2.428   3.098 -23.395  0.00  0.00    +0.207 C 
ATOM      6  C   UNL     1      -1.159   2.862 -23.550  0.00  0.00    +0.019 C 
ATOM      7  C   UNL     1      -0.577   3.156 -24.675  0.00  0.00    -0.045 C 
ATOM      8  C   UNL     1       0.691   2.921 -24.832  0.00  0.00    +0.144 C 
ATOM      9  C   UNL     1       1.379   2.392 -23.863  0.00  0.00    +0.063 C 
ATOM     10  C   UNL     1       0.798   2.098 -22.739  0.00  0.00    -0.025 C 
ATOM     11  C   UNL     1      -0.471   2.333 -22.583  0.00  0.00    -0.076 C 
ATOM     12  C   UNL     1      -1.053   2.040 -21.458  0.00  0.00    +0.031 C 
ATOM     13  C   UNL     1      -2.323   2.275 -21.303  0.00  0.00    +0.016 C 
ATOM     14  C   UNL     1       0.215   1.804 -21.614  0.00  0.00    +0.039 C 
ATOM     15  C   UNL     1      -1.265   3.685 -25.644  0.00  0.00    +0.041 C 
ATOM     16  O   UNL     1      -5.586   4.071 -24.024  0.00  0.00    -0.245 OA
ATOM     17  C   UNL     1      -3.010   2.804 -22.270  0.00  0.00    +0.070 C 
ENDROOT
BRANCH   8  18
ATOM     18  O   UNL     1       1.274   3.215 -25.957  0.00  0.00    -0.387 OA
ATOM     19  H   UNL     1       2.232   3.095 -25.866  0.00  0.00    +0.210 HD
ENDBRANCH   8  18
TORSDOF 1
ENDMDL
MODEL 4
REMARK VINA RESULT:    -9.252      1.842      5.229
REMARK INTER + INTRA:          -9.523
REMARK INTER:                  -9.523
REMARK INTRA:                   0.000
REMARK UNBOUND:                 0.000
REMARK  Name = C=C1C(=O)O[C@@H]2C=C(C)[C@@H](O)CC=C(C)CC[C@@H]12                    ZINC001081701743
REMARK  3 active torsions:
REMARK  status: ('A' for Active; 'I' for Inactive)
REMARK    1  A    between atoms: C_8  and  C_9
REMARK    2  A    between atoms: C_10  and  O_11
REMARK    3  A    between atoms: C_14  and  C_15
REMARK                            x       y       z     vdW  Elec       q    Type
REMARK                         _______ _______ _______ _____ _____    ______ ____
ROOT
ATOM      1  C   UNL     1      -5.183   3.709 -23.231  0.00  0.00    +0.020 C 
ATOM      2  C   UNL     1      -4.053   3.218 -22.814  0.00  0.00    +0.036 C 
ATOM      3  C   UNL     1      -3.865   2.571 -21.703  0.00  0.00    +0.336 C 
ATOM      4  O   UNL     1      -2.609   2.242 -21.639  0.00  0.00    -0.453 OA
ATOM      5  C   UNL     1      -2.021   2.686 -22.709  0.00  0.00    +0.207 C 
ATOM      6  C   UNL     1      -0.789   2.618 -23.116  0.00  0.00    +0.019 C 
ATOM      7  C   UNL     1       0.104   2.015 -22.389  0.00  0.00    -0.045 C 
ATOM      8  C   UNL     1       1.337   1.946 -22.794  0.00  0.00    +0.144 C 
ATOM      9  C   UNL     1       1.678   2.482 -23.929  0.00  0.00    +0.063 C 
ATOM     10  C   UNL     1       0.787   3.086 -24.656  0.00  0.00    -0.025 C 
ATOM     11  C   UNL     1      -0.446   3.153 -24.250  0.00  0.00    -0.076 C 
ATOM     12  C   UNL     1      -1.339   3.757 -24.977  0.00  0.00    +0.031 C 
ATOM     13  C   UNL     1      -2.572   3.824 -24.570  0.00  0.00    +0.016 C 
ATOM     14  C   UNL     1      -0.107   3.690 -25.384  0.00  0.00    +0.039 C 
ATOM     15  C   UNL     1      -0.238   1.479 -21.254  0.00  0.00    +0.041 C 
ATOM     16  O   UNL     1      -4.773   2.301 -20.814  0.00  0.00    -0.245 OA
ATOM     17  C   UNL     1      -2.913   3.289 -23.437  0.00  0.00    +0.070 C 
ENDROOT
BRANCH   8  18
ATOM     18  O   UNL     1       2.229   1.343 -22.067  0.00  0.00    -0.387 OA
ATOM     19  H   UNL     1       2.306   1.791 -21.210  0.00  0.00    +0.210 HD
ENDBRANCH   8  18
TORSDOF 1
ENDMDL
MODEL 5
REMARK VINA RESULT:    -8.834      2.578      4.557
REMARK INTER + INTRA:          -9.092
REMARK INTER:                  -9.092
REMARK INTRA:                   0.000
REMARK UNBOUND:                 0.000
REMARK  Name = C=C1C(=O)O[C@@H]2C=C(C)[C@@H](O)CC=C(C)CC[C@@H]12                    ZINC001081701743
REMARK  3 active torsions:
REMARK  status: ('A' for Active; 'I' for Inactive)
REMARK    1  A    between atoms: C_8  and  C_9
REMARK    2  A    between atoms: C_10  and  O_11
REMARK    3  A    between atoms: C_14  and  C_15
REMARK                            x       y       z     vdW  Elec       q    Type
REMARK                         _______ _______ _______ _____ _____    ______ ____
ROOT
ATOM      1  C   UNL     1       4.977   2.046 -22.139  0.00  0.00    +0.020 C 
ATOM      2  C   UNL     1       3.694   1.889 -21.986  0.00  0.00    +0.036 C 
ATOM      3  C   UNL     1       3.117   0.948 -21.300  0.00  0.00    +0.336 C 
ATOM      4  O   UNL     1       1.831   1.125 -21.384  0.00  0.00    -0.453 OA
ATOM      5  C   UNL     1       1.615   2.173 -22.121  0.00  0.00    +0.207 C 
ATOM      6  C   UNL     1       0.519   2.758 -22.501  0.00  0.00    +0.019 C 
ATOM      7  C   UNL     1      -0.633   2.285 -22.128  0.00  0.00    -0.045 C 
ATOM      8  C   UNL     1      -1.731   2.869 -22.508  0.00  0.00    +0.144 C 
ATOM      9  C   UNL     1      -1.676   3.928 -23.260  0.00  0.00    +0.063 C 
ATOM     10  C   UNL     1      -0.525   4.402 -23.633  0.00  0.00    -0.025 C 
ATOM     11  C   UNL     1       0.572   3.817 -23.253  0.00  0.00    -0.076 C 
ATOM     12  C   UNL     1       1.724   4.290 -23.626  0.00  0.00    +0.031 C 
ATOM     13  C   UNL     1       2.821   3.704 -23.246  0.00  0.00    +0.016 C 
ATOM     14  C   UNL     1       0.628   4.875 -24.006  0.00  0.00    +0.039 C 
ATOM     15  C   UNL     1      -0.688   1.226 -21.375  0.00  0.00    +0.041 C 
ATOM     16  O   UNL     1       3.717  -0.000 -20.647  0.00  0.00    -0.245 OA
ATOM     17  C   UNL     1       2.767   2.646 -22.494  0.00  0.00    +0.070 C 
ENDROOT
BRANCH   8  18
ATOM     18  O   UNL     1      -2.883   2.396 -22.135  0.00  0.00    -0.387 OA
ATOM     19  H   UNL     1      -3.543   3.107 -22.143  0.00  0.00    +0.210 HD
ENDBRANCH   8  18
TORSDOF 1
ENDMDL
MODEL 6
REMARK VINA RESULT:    -8.635      2.119      6.024
REMARK INTER + INTRA:          -8.888
REMARK INTER:                  -8.888
REMARK INTRA:                   0.000
REMARK UNBOUND:                 0.000
REMARK  Name = C=C1C(=O)O[C@@H]2C=C(C)[C@@H](O)CC=C(C)CC[C@@H]12                    ZINC001081701743
REMARK  3 active torsions:
REMARK  status: ('A' for Active; 'I' for Inactive)
REMARK    1  A    between atoms: C_8  and  C_9
REMARK    2  A    between atoms: C_10  and  O_11
REMARK    3  A    between atoms: C_14  and  C_15
REMARK                            x       y       z     vdW  Elec       q    Type
REMARK                         _______ _______ _______ _____ _____    ______ ____
ROOT
ATOM      1  C   UNL     1      -2.495   3.768 -25.581  0.00  0.00    +0.020 C 
ATOM      2  C   UNL     1      -1.887   3.260 -24.549  0.00  0.00    +0.036 C 
ATOM      3  C   UNL     1      -2.460   2.780 -23.486  0.00  0.00    +0.336 C 
ATOM      4  O   UNL     1      -1.526   2.367 -22.681  0.00  0.00    -0.453 OA
ATOM      5  C   UNL     1      -0.378   2.591 -23.246  0.00  0.00    +0.207 C 
ATOM      6  C   UNL     1       0.842   2.365 -22.859  0.00  0.00    +0.019 C 
ATOM      7  C   UNL     1       1.065   1.812 -21.703  0.00  0.00    -0.045 C 
ATOM      8  C   UNL     1       2.284   1.585 -21.314  0.00  0.00    +0.144 C 
ATOM      9  C   UNL     1       3.281   1.910 -22.082  0.00  0.00    +0.063 C 
ATOM     10  C   UNL     1       3.060   2.462 -23.237  0.00  0.00    -0.025 C 
ATOM     11  C   UNL     1       1.840   2.689 -23.625  0.00  0.00    -0.076 C 
ATOM     12  C   UNL     1       1.617   3.242 -24.780  0.00  0.00    +0.031 C 
ATOM     13  C   UNL     1       0.397   3.469 -25.168  0.00  0.00    +0.016 C 
ATOM     14  C   UNL     1       2.837   3.015 -24.393  0.00  0.00    +0.039 C 
ATOM     15  C   UNL     1       0.066   1.487 -20.936  0.00  0.00    +0.041 C 
ATOM     16  O   UNL     1      -3.739   2.723 -23.267  0.00  0.00    -0.245 OA
ATOM     17  C   UNL     1      -0.600   3.144 -24.402  0.00  0.00    +0.070 C 
ENDROOT
BRANCH   8  18
ATOM     18  O   UNL     1       2.506   1.032 -20.159  0.00  0.00    -0.387 OA
ATOM     19  H   UNL     1       3.212   0.373 -20.246  0.00  0.00    +0.210 HD
ENDBRANCH   8  18
TORSDOF 1
ENDMDL
MODEL 7
REMARK VINA RESULT:    -8.525      3.701      7.321
REMARK INTER + INTRA:          -8.775
REMARK INTER:                  -8.775
REMARK INTRA:                   0.000
REMARK UNBOUND:                 0.000
REMARK  Name = C=C1C(=O)O[C@@H]2C=C(C)[C@@H](O)CC=C(C)CC[C@@H]12                    ZINC001081701743
REMARK  3 active torsions:
REMARK  status: ('A' for Active; 'I' for Inactive)
REMARK    1  A    between atoms: C_8  and  C_9
REMARK    2  A    between atoms: C_10  and  O_11
REMARK    3  A    between atoms: C_14  and  C_15
REMARK                            x       y       z     vdW  Elec       q    Type
REMARK                         _______ _______ _______ _____ _____    ______ ____
ROOT
ATOM      1  C   UNL     1      -0.698   4.675 -23.671  0.00  0.00    +0.020 C 
ATOM      2  C   UNL     1       0.225   3.785 -23.456  0.00  0.00    +0.036 C 
ATOM      3  C   UNL     1       0.039   2.502 -23.357  0.00  0.00    +0.336 C 
ATOM      4  O   UNL     1       1.195   1.947 -23.141  0.00  0.00    -0.453 OA
ATOM      5  C   UNL     1       2.094   2.885 -23.107  0.00  0.00    +0.207 C 
ATOM      6  C   UNL     1       3.380   2.852 -22.924  0.00  0.00    +0.019 C 
ATOM      7  C   UNL     1       3.979   1.715 -22.730  0.00  0.00    -0.045 C 
ATOM      8  C   UNL     1       5.266   1.679 -22.547  0.00  0.00    +0.144 C 
ATOM      9  C   UNL     1       5.953   2.783 -22.558  0.00  0.00    +0.063 C 
ATOM     10  C   UNL     1       5.355   3.920 -22.753  0.00  0.00    -0.025 C 
ATOM     11  C   UNL     1       4.069   3.953 -22.935  0.00  0.00    -0.076 C 
ATOM     12  C   UNL     1       3.469   5.090 -23.130  0.00  0.00    +0.031 C 
ATOM     13  C   UNL     1       2.182   5.124 -23.313  0.00  0.00    +0.016 C 
ATOM     14  C   UNL     1       4.755   5.057 -22.947  0.00  0.00    +0.039 C 
ATOM     15  C   UNL     1       3.291   0.611 -22.718  0.00  0.00    +0.041 C 
ATOM     16  O   UNL     1      -1.099   1.885 -23.455  0.00  0.00    -0.245 OA
ATOM     17  C   UNL     1       1.494   4.022 -23.302  0.00  0.00    +0.070 C 
ENDROOT
BRANCH   8  18
ATOM     18  O   UNL     1       5.865   0.543 -22.352  0.00  0.00    -0.387 OA
ATOM     19  H   UNL     1       5.211  -0.132 -22.112  0.00  0.00    +0.210 HD
ENDBRANCH   8  18
TORSDOF 1
ENDMDL
MODEL 8
REMARK VINA RESULT:    -7.779      3.488      5.614
REMARK INTER + INTRA:          -8.007
REMARK INTER:                  -8.007
REMARK INTRA:                   0.000
REMARK UNBOUND:                 0.000
REMARK  Name = C=C1C(=O)O[C@@H]2C=C(C)[C@@H](O)CC=C(C)CC[C@@H]12                    ZINC001081701743
REMARK  3 active torsions:
REMARK  status: ('A' for Active; 'I' for Inactive)
REMARK    1  A    between atoms: C_8  and  C_9
REMARK    2  A    between atoms: C_10  and  O_11
REMARK    3  A    between atoms: C_14  and  C_15
REMARK                            x       y       z     vdW  Elec       q    Type
REMARK                         _______ _______ _______ _____ _____    ______ ____
ROOT
ATOM      1  C   UNL     1       5.907   4.942 -23.161  0.00  0.00    +0.020 C 
ATOM      2  C   UNL     1       4.987   4.050 -22.937  0.00  0.00    +0.036 C 
ATOM      3  C   UNL     1       5.190   2.817 -22.580  0.00  0.00    +0.336 C 
ATOM      4  O   UNL     1       4.030   2.242 -22.454  0.00  0.00    -0.453 OA
ATOM      5  C   UNL     1       3.112   3.118 -22.734  0.00  0.00    +0.207 C 
ATOM      6  C   UNL     1       1.815   3.043 -22.755  0.00  0.00    +0.019 C 
ATOM      7  C   UNL     1       1.224   1.924 -22.456  0.00  0.00    -0.045 C 
ATOM      8  C   UNL     1      -0.073   1.847 -22.477  0.00  0.00    +0.144 C 
ATOM      9  C   UNL     1      -0.780   2.890 -22.797  0.00  0.00    +0.063 C 
ATOM     10  C   UNL     1      -0.190   4.008 -23.096  0.00  0.00    -0.025 C 
ATOM     11  C   UNL     1       1.107   4.084 -23.075  0.00  0.00    -0.076 C 
ATOM     12  C   UNL     1       1.698   5.203 -23.374  0.00  0.00    +0.031 C 
ATOM     13  C   UNL     1       2.997   5.278 -23.353  0.00  0.00    +0.016 C 
ATOM     14  C   UNL     1       0.401   5.128 -23.395  0.00  0.00    +0.039 C 
ATOM     15  C   UNL     1       1.932   0.881 -22.136  0.00  0.00    +0.041 C 
ATOM     16  O   UNL     1       6.346   2.259 -22.382  0.00  0.00    -0.245 OA
ATOM     17  C   UNL     1       3.703   4.236 -23.033  0.00  0.00    +0.070 C 
ENDROOT
BRANCH   8  18
ATOM     18  O   UNL     1      -0.664   0.728 -22.178  0.00  0.00    -0.387 OA
ATOM     19  H   UNL     1      -0.260   0.004 -22.680  0.00  0.00    +0.210 HD
ENDBRANCH   8  18
TORSDOF 1
ENDMDL
MODEL 9
REMARK VINA RESULT:    -7.710      2.687      6.055
REMARK INTER + INTRA:          -7.935
REMARK INTER:                  -7.935
REMARK INTRA:                   0.000
REMARK UNBOUND:                 0.000
REMARK  Name = C=C1C(=O)O[C@@H]2C=C(C)[C@@H](O)CC=C(C)CC[C@@H]12                    ZINC001081701743
REMARK  3 active torsions:
REMARK  status: ('A' for Active; 'I' for Inactive)
REMARK    1  A    between atoms: C_8  and  C_9
REMARK    2  A    between atoms: C_10  and  O_11
REMARK    3  A    between atoms: C_14  and  C_15
REMARK                            x       y       z     vdW  Elec       q    Type
REMARK                         _______ _______ _______ _____ _____    ______ ____
ROOT
ATOM      1  C   UNL     1      -2.678   3.821 -21.957  0.00  0.00    +0.020 C 
ATOM      2  C   UNL     1      -1.572   3.143 -22.042  0.00  0.00    +0.036 C 
ATOM      3  C   UNL     1      -1.414   1.895 -21.714  0.00  0.00    +0.336 C 
ATOM      4  O   UNL     1      -0.174   1.576 -21.940  0.00  0.00    -0.453 OA
ATOM      5  C   UNL     1       0.434   2.625 -22.406  0.00  0.00    +0.207 C 
ATOM      6  C   UNL     1       1.662   2.825 -22.782  0.00  0.00    +0.019 C 
ATOM      7  C   UNL     1       2.526   1.855 -22.718  0.00  0.00    -0.045 C 
ATOM      8  C   UNL     1       3.755   2.052 -23.093  0.00  0.00    +0.144 C 
ATOM      9  C   UNL     1       4.120   3.221 -23.533  0.00  0.00    +0.063 C 
ATOM     10  C   UNL     1       3.257   4.190 -23.596  0.00  0.00    -0.025 C 
ATOM     11  C   UNL     1       2.029   3.991 -23.221  0.00  0.00    -0.076 C 
ATOM     12  C   UNL     1       1.164   4.960 -23.285  0.00  0.00    +0.031 C 
ATOM     13  C   UNL     1      -0.065   4.761 -22.909  0.00  0.00    +0.016 C 
ATOM     14  C   UNL     1       2.392   5.160 -23.660  0.00  0.00    +0.039 C 
ATOM     15  C   UNL     1       2.160   0.687 -22.279  0.00  0.00    +0.041 C 
ATOM     16  O   UNL     1      -2.333   1.107 -21.244  0.00  0.00    -0.245 OA
ATOM     17  C   UNL     1      -0.430   3.595 -22.470  0.00  0.00    +0.070 C 
ENDROOT
BRANCH   8  18
ATOM     18  O   UNL     1       4.619   1.083 -23.030  0.00  0.00    -0.387 OA
ATOM     19  H   UNL     1       5.327   1.321 -22.412  0.00  0.00    +0.210 HD
ENDBRANCH   8  18
TORSDOF 1
ENDMDL
