MODEL 1
REMARK VINA RESULT:    -9.312      0.000      0.000
REMARK INTER + INTRA:          -9.857
REMARK INTER:                  -9.857
REMARK INTRA:                   0.000
REMARK UNBOUND:                 0.000
REMARK  Name = ZINC000004104700
REMARK  4 active torsions:
REMARK  status: ('A' for Active; 'I' for Inactive)
REMARK    1  A    between atoms: C_1  and  C_2
REMARK    2  A    between atoms: C_5  and  O_6
REMARK    3  A    between atoms: C_14  and  C_15
REMARK    4  A    between atoms: C_14  and  C_16
REMARK                            x       y       z     vdW  Elec       q    Type
REMARK                         _______ _______ _______ _____ _____    ______ ____
ROOT
ATOM      1  C   UNL     1      -1.798   3.753 -25.442  0.00  0.00    +0.008 C 
ATOM      2  C   UNL     1      -2.928   3.775 -24.800  0.00  0.00    -0.007 C 
ATOM      3  C   UNL     1      -4.050   4.258 -25.246  0.00  0.00    +0.007 C 
ATOM      4  C   UNL     1      -4.951   4.100 -24.322  0.00  0.00    +0.043 C 
ATOM      5  C   UNL     1      -4.386   3.519 -23.306  0.00  0.00    +0.127 C 
ATOM      6  C   UNL     1      -5.019   3.218 -22.211  0.00  0.00    +0.165 C 
ATOM      7  C   UNL     1      -4.557   2.640 -21.141  0.00  0.00    +0.078 C 
ATOM      8  C   UNL     1      -3.350   2.223 -20.902  0.00  0.00    +0.012 C 
ATOM      9  C   UNL     1      -2.305   2.279 -21.674  0.00  0.00    -0.001 C 
ATOM     10  C   UNL     1      -2.210   2.766 -22.875  0.00  0.00    +0.005 C 
ATOM     11  C   UNL     1      -1.166   2.248 -22.300  0.00  0.00    -0.028 C 
ATOM     12  C   UNL     1      -0.428   1.670 -21.398  0.00  0.00    +0.011 C 
ATOM     13  C   UNL     1      -0.283   2.417 -23.238  0.00  0.00    +0.011 C 
ATOM     14  O   UNL     1      -6.279   3.535 -22.182  0.00  0.00    -0.294 OA
ATOM     15  C   UNL     1      -3.136   3.318 -23.601  0.00  0.00    +0.035 C 
ENDROOT
BRANCH   5  16
ATOM     16  O   UNL     1      -5.650   3.814 -23.223  0.00  0.00    -0.381 OA
ATOM     17  H   UNL     1      -5.920   3.818 -22.291  0.00  0.00    +0.211 HD
ENDBRANCH   5  16
TORSDOF 1
ENDMDL
MODEL 2
REMARK VINA RESULT:    -9.113      1.050      2.981
REMARK INTER + INTRA:          -9.646
REMARK INTER:                  -9.646
REMARK INTRA:                   0.000
REMARK UNBOUND:                 0.000
REMARK  Name = ZINC000004104700
REMARK  4 active torsions:
REMARK  status: ('A' for Active; 'I' for Inactive)
REMARK    1  A    between atoms: C_1  and  C_2
REMARK    2  A    between atoms: C_5  and  O_6
REMARK    3  A    between atoms: C_14  and  C_15
REMARK    4  A    between atoms: C_14  and  C_16
REMARK                            x       y       z     vdW  Elec       q    Type
REMARK                         _______ _______ _______ _____ _____    ______ ____
ROOT
ATOM      1  C   UNL     1      -3.917   2.493 -20.637  0.00  0.00    +0.008 C 
ATOM      2  C   UNL     1      -4.267   2.954 -21.801  0.00  0.00    -0.007 C 
ATOM      3  C   UNL     1      -5.459   3.347 -22.139  0.00  0.00    +0.007 C 
ATOM      4  C   UNL     1      -5.416   3.740 -23.379  0.00  0.00    +0.043 C 
ATOM      5  C   UNL     1      -4.198   3.588 -23.805  0.00  0.00    +0.127 C 
ATOM      6  C   UNL     1      -3.820   3.890 -25.012  0.00  0.00    +0.165 C 
ATOM      7  C   UNL     1      -2.637   3.781 -25.542  0.00  0.00    +0.078 C 
ATOM      8  C   UNL     1      -1.542   3.343 -24.996  0.00  0.00    +0.012 C 
ATOM      9  C   UNL     1      -1.358   2.906 -23.785  0.00  0.00    -0.001 C 
ATOM     10  C   UNL     1      -2.224   2.799 -22.821  0.00  0.00    +0.005 C 
ATOM     11  C   UNL     1      -0.989   2.442 -22.627  0.00  0.00    -0.028 C 
ATOM     12  C   UNL     1       0.270   2.219 -22.865  0.00  0.00    +0.011 C 
ATOM     13  C   UNL     1      -1.057   2.056 -21.389  0.00  0.00    +0.011 C 
ATOM     14  O   UNL     1      -4.745   4.364 -25.791  0.00  0.00    -0.294 OA
ATOM     15  C   UNL     1      -3.488   3.103 -22.830  0.00  0.00    +0.035 C 
ENDROOT
BRANCH   5  16
ATOM     16  O   UNL     1      -5.084   4.066 -24.628  0.00  0.00    -0.381 OA
ATOM     17  H   UNL     1      -5.657   3.348 -24.938  0.00  0.00    +0.211 HD
ENDBRANCH   5  16
TORSDOF 1
ENDMDL
MODEL 3
REMARK VINA RESULT:    -9.111      2.210      3.631
REMARK INTER + INTRA:          -9.643
REMARK INTER:                  -9.643
REMARK INTRA:                   0.000
REMARK UNBOUND:                 0.000
REMARK  Name = ZINC000004104700
REMARK  4 active torsions:
REMARK  status: ('A' for Active; 'I' for Inactive)
REMARK    1  A    between atoms: C_1  and  C_2
REMARK    2  A    between atoms: C_5  and  O_6
REMARK    3  A    between atoms: C_14  and  C_15
REMARK    4  A    between atoms: C_14  and  C_16
REMARK                            x       y       z     vdW  Elec       q    Type
REMARK                         _______ _______ _______ _____ _____    ______ ____
ROOT
ATOM      1  C   UNL     1      -4.879   3.969 -24.800  0.00  0.00    +0.008 C 
ATOM      2  C   UNL     1      -3.620   3.648 -24.831  0.00  0.00    -0.007 C 
ATOM      3  C   UNL     1      -2.829   3.760 -25.856  0.00  0.00    +0.007 C 
ATOM      4  C   UNL     1      -1.650   3.339 -25.503  0.00  0.00    +0.043 C 
ATOM      5  C   UNL     1      -1.714   2.968 -24.259  0.00  0.00    +0.127 C 
ATOM      6  C   UNL     1      -0.698   2.494 -23.601  0.00  0.00    +0.165 C 
ATOM      7  C   UNL     1      -0.648   2.095 -22.364  0.00  0.00    +0.078 C 
ATOM      8  C   UNL     1      -1.602   2.071 -21.481  0.00  0.00    +0.012 C 
ATOM      9  C   UNL     1      -2.841   2.439 -21.617  0.00  0.00    -0.001 C 
ATOM     10  C   UNL     1      -3.433   2.923 -22.668  0.00  0.00    +0.005 C 
ATOM     11  C   UNL     1      -4.101   2.755 -21.566  0.00  0.00    -0.028 C 
ATOM     12  C   UNL     1      -4.364   2.439 -20.332  0.00  0.00    +0.011 C 
ATOM     13  C   UNL     1      -5.270   3.180 -21.943  0.00  0.00    +0.011 C 
ATOM     14  O   UNL     1       0.415   2.409 -24.266  0.00  0.00    -0.294 OA
ATOM     15  C   UNL     1      -2.931   3.158 -23.844  0.00  0.00    +0.035 C 
ENDROOT
BRANCH   5  16
ATOM     16  O   UNL     1      -0.575   2.860 -24.877  0.00  0.00    -0.381 OA
ATOM     17  H   UNL     1       0.131   3.222 -24.318  0.00  0.00    +0.211 HD
ENDBRANCH   5  16
TORSDOF 1
ENDMDL
MODEL 4
REMARK VINA RESULT:    -8.720      2.082      4.338
REMARK INTER + INTRA:          -9.230
REMARK INTER:                  -9.230
REMARK INTRA:                   0.000
REMARK UNBOUND:                 0.000
REMARK  Name = ZINC000004104700
REMARK  4 active torsions:
REMARK  status: ('A' for Active; 'I' for Inactive)
REMARK    1  A    between atoms: C_1  and  C_2
REMARK    2  A    between atoms: C_5  and  O_6
REMARK    3  A    between atoms: C_14  and  C_15
REMARK    4  A    between atoms: C_14  and  C_16
REMARK                            x       y       z     vdW  Elec       q    Type
REMARK                         _______ _______ _______ _____ _____    ______ ____
ROOT
ATOM      1  C   UNL     1      -5.563   3.418 -22.493  0.00  0.00    +0.008 C 
ATOM      2  C   UNL     1      -4.353   3.143 -22.106  0.00  0.00    -0.007 C 
ATOM      3  C   UNL     1      -3.979   2.894 -20.886  0.00  0.00    +0.007 C 
ATOM      4  C   UNL     1      -2.699   2.665 -20.896  0.00  0.00    +0.043 C 
ATOM      5  C   UNL     1      -2.282   2.773 -22.122  0.00  0.00    +0.127 C 
ATOM      6  C   UNL     1      -1.042   2.603 -22.474  0.00  0.00    +0.165 C 
ATOM      7  C   UNL     1      -0.518   2.685 -23.662  0.00  0.00    +0.078 C 
ATOM      8  C   UNL     1      -1.104   2.958 -24.789  0.00  0.00    +0.012 C 
ATOM      9  C   UNL     1      -2.360   3.216 -25.008  0.00  0.00    -0.001 C 
ATOM     10  C   UNL     1      -3.338   3.265 -24.155  0.00  0.00    +0.005 C 
ATOM     11  C   UNL     1      -3.563   3.493 -25.414  0.00  0.00    -0.028 C 
ATOM     12  C   UNL     1      -3.343   3.643 -26.688  0.00  0.00    +0.011 C 
ATOM     13  C   UNL     1      -4.843   3.718 -25.379  0.00  0.00    +0.011 C 
ATOM     14  O   UNL     1      -0.218   2.311 -21.513  0.00  0.00    -0.294 OA
ATOM     15  C   UNL     1      -3.304   3.068 -22.870  0.00  0.00    +0.035 C 
ENDROOT
BRANCH   5  16
ATOM     16  O   UNL     1      -1.414   2.480 -21.200  0.00  0.00    -0.381 OA
ATOM     17  H   UNL     1      -1.009   1.621 -21.399  0.00  0.00    +0.211 HD
ENDBRANCH   5  16
TORSDOF 1
ENDMDL
MODEL 5
REMARK VINA RESULT:    -8.628      0.837      3.095
REMARK INTER + INTRA:          -9.132
REMARK INTER:                  -9.132
REMARK INTRA:                   0.000
REMARK UNBOUND:                 0.000
REMARK  Name = ZINC000004104700
REMARK  4 active torsions:
REMARK  status: ('A' for Active; 'I' for Inactive)
REMARK    1  A    between atoms: C_1  and  C_2
REMARK    2  A    between atoms: C_5  and  O_6
REMARK    3  A    between atoms: C_14  and  C_15
REMARK    4  A    between atoms: C_14  and  C_16
REMARK                            x       y       z     vdW  Elec       q    Type
REMARK                         _______ _______ _______ _____ _____    ______ ____
ROOT
ATOM      1  C   UNL     1      -1.251   2.275 -21.136  0.00  0.00    +0.008 C 
ATOM      2  C   UNL     1      -2.444   2.591 -21.543  0.00  0.00    -0.007 C 
ATOM      3  C   UNL     1      -3.537   2.501 -20.846  0.00  0.00    +0.007 C 
ATOM      4  C   UNL     1      -4.523   2.907 -21.590  0.00  0.00    +0.043 C 
ATOM      5  C   UNL     1      -4.038   3.247 -22.747  0.00  0.00    +0.127 C 
ATOM      6  C   UNL     1      -4.768   3.698 -23.724  0.00  0.00    +0.165 C 
ATOM      7  C   UNL     1      -4.392   4.066 -24.914  0.00  0.00    +0.078 C 
ATOM      8  C   UNL     1      -3.195   4.073 -25.420  0.00  0.00    +0.012 C 
ATOM      9  C   UNL     1      -2.077   3.714 -24.861  0.00  0.00    -0.001 C 
ATOM     10  C   UNL     1      -1.880   3.260 -23.659  0.00  0.00    +0.005 C 
ATOM     11  C   UNL     1      -0.876   3.403 -24.471  0.00  0.00    -0.028 C 
ATOM     12  C   UNL     1      -0.208   3.690 -25.550  0.00  0.00    +0.011 C 
ATOM     13  C   UNL     1       0.093   2.994 -23.708  0.00  0.00    +0.011 C 
ATOM     14  O   UNL     1      -6.041   3.795 -23.480  0.00  0.00    -0.294 OA
ATOM     15  C   UNL     1      -2.753   3.052 -22.719  0.00  0.00    +0.035 C 
ENDROOT
BRANCH   5  16
ATOM     16  O   UNL     1      -5.320   3.364 -22.557  0.00  0.00    -0.381 OA
ATOM     17  H   UNL     1      -5.693   3.953 -23.232  0.00  0.00    +0.211 HD
ENDBRANCH   5  16
TORSDOF 1
ENDMDL
MODEL 6
REMARK VINA RESULT:    -8.623      2.081      4.096
REMARK INTER + INTRA:          -9.127
REMARK INTER:                  -9.127
REMARK INTRA:                   0.000
REMARK UNBOUND:                 0.000
REMARK  Name = ZINC000004104700
REMARK  4 active torsions:
REMARK  status: ('A' for Active; 'I' for Inactive)
REMARK    1  A    between atoms: C_1  and  C_2
REMARK    2  A    between atoms: C_5  and  O_6
REMARK    3  A    between atoms: C_14  and  C_15
REMARK    4  A    between atoms: C_14  and  C_16
REMARK                            x       y       z     vdW  Elec       q    Type
REMARK                         _______ _______ _______ _____ _____    ______ ____
ROOT
ATOM      1  C   UNL     1      -1.127   2.271 -21.488  0.00  0.00    +0.008 C 
ATOM      2  C   UNL     1      -1.201   2.575 -22.750  0.00  0.00    -0.007 C 
ATOM      3  C   UNL     1      -0.210   2.591 -23.591  0.00  0.00    +0.007 C 
ATOM      4  C   UNL     1      -0.674   2.942 -24.754  0.00  0.00    +0.043 C 
ATOM      5  C   UNL     1      -1.952   3.141 -24.631  0.00  0.00    +0.127 C 
ATOM      6  C   UNL     1      -2.718   3.505 -25.617  0.00  0.00    +0.165 C 
ATOM      7  C   UNL     1      -3.999   3.731 -25.608  0.00  0.00    +0.078 C 
ATOM      8  C   UNL     1      -4.829   3.650 -24.611  0.00  0.00    +0.012 C 
ATOM      9  C   UNL     1      -4.584   3.323 -23.377  0.00  0.00    -0.001 C 
ATOM     10  C   UNL     1      -3.450   2.995 -22.835  0.00  0.00    +0.005 C 
ATOM     11  C   UNL     1      -4.530   3.022 -22.113  0.00  0.00    -0.028 C 
ATOM     12  C   UNL     1      -5.782   3.172 -21.792  0.00  0.00    +0.011 C 
ATOM     13  C   UNL     1      -4.042   2.670 -20.961  0.00  0.00    +0.011 C 
ATOM     14  O   UNL     1      -2.125   3.662 -26.763  0.00  0.00    -0.294 OA
ATOM     15  C   UNL     1      -2.278   2.915 -23.393  0.00  0.00    +0.035 C 
ENDROOT
BRANCH   5  16
ATOM     16  O   UNL     1      -1.411   3.314 -25.801  0.00  0.00    -0.381 OA
ATOM     17  H   UNL     1      -1.855   2.744 -26.449  0.00  0.00    +0.211 HD
ENDBRANCH   5  16
TORSDOF 1
ENDMDL
MODEL 7
REMARK VINA RESULT:    -8.431      2.338      4.866
REMARK INTER + INTRA:          -8.924
REMARK INTER:                  -8.924
REMARK INTRA:                   0.000
REMARK UNBOUND:                 0.000
REMARK  Name = ZINC000004104700
REMARK  4 active torsions:
REMARK  status: ('A' for Active; 'I' for Inactive)
REMARK    1  A    between atoms: C_1  and  C_2
REMARK    2  A    between atoms: C_5  and  O_6
REMARK    3  A    between atoms: C_14  and  C_15
REMARK    4  A    between atoms: C_14  and  C_16
REMARK                            x       y       z     vdW  Elec       q    Type
REMARK                         _______ _______ _______ _____ _____    ______ ____
ROOT
ATOM      1  C   UNL     1      -3.557   2.674 -20.868  0.00  0.00    +0.008 C 
ATOM      2  C   UNL     1      -2.458   2.619 -21.560  0.00  0.00    -0.007 C 
ATOM      3  C   UNL     1      -1.295   2.245 -21.116  0.00  0.00    +0.007 C 
ATOM      4  C   UNL     1      -0.446   2.322 -22.098  0.00  0.00    +0.043 C 
ATOM      5  C   UNL     1      -1.085   2.745 -23.148  0.00  0.00    +0.127 C 
ATOM      6  C   UNL     1      -0.519   2.931 -24.304  0.00  0.00    +0.165 C 
ATOM      7  C   UNL     1      -1.057   3.347 -25.412  0.00  0.00    +0.078 C 
ATOM      8  C   UNL     1      -2.294   3.678 -25.638  0.00  0.00    +0.012 C 
ATOM      9  C   UNL     1      -3.298   3.676 -24.812  0.00  0.00    -0.001 C 
ATOM     10  C   UNL     1      -3.313   3.342 -23.556  0.00  0.00    +0.005 C 
ATOM     11  C   UNL     1      -4.407   3.738 -24.137  0.00  0.00    -0.028 C 
ATOM     12  C   UNL     1      -5.213   4.164 -25.065  0.00  0.00    +0.011 C 
ATOM     13  C   UNL     1      -5.236   3.652 -23.140  0.00  0.00    +0.011 C 
ATOM     14  O   UNL     1       0.752   2.667 -24.358  0.00  0.00    -0.294 OA
ATOM     15  C   UNL     1      -2.329   2.928 -22.816  0.00  0.00    +0.035 C 
ENDROOT
BRANCH   5  16
ATOM     16  O   UNL     1       0.186   2.496 -23.259  0.00  0.00    -0.381 OA
ATOM     17  H   UNL     1       0.690   3.170 -22.777  0.00  0.00    +0.211 HD
ENDBRANCH   5  16
TORSDOF 1
ENDMDL
MODEL 8
REMARK VINA RESULT:    -8.357      1.490      2.481
REMARK INTER + INTRA:          -8.846
REMARK INTER:                  -8.846
REMARK INTRA:                   0.000
REMARK UNBOUND:                 0.000
REMARK  Name = ZINC000004104700
REMARK  4 active torsions:
REMARK  status: ('A' for Active; 'I' for Inactive)
REMARK    1  A    between atoms: C_1  and  C_2
REMARK    2  A    between atoms: C_5  and  O_6
REMARK    3  A    between atoms: C_14  and  C_15
REMARK    4  A    between atoms: C_14  and  C_16
REMARK                            x       y       z     vdW  Elec       q    Type
REMARK                         _______ _______ _______ _____ _____    ______ ____
ROOT
ATOM      1  C   UNL     1      -0.412   3.022 -23.895  0.00  0.00    +0.008 C 
ATOM      2  C   UNL     1      -1.538   3.251 -24.502  0.00  0.00    -0.007 C 
ATOM      3  C   UNL     1      -1.698   3.404 -25.783  0.00  0.00    +0.007 C 
ATOM      4  C   UNL     1      -2.961   3.614 -26.009  0.00  0.00    +0.043 C 
ATOM      5  C   UNL     1      -3.581   3.591 -24.868  0.00  0.00    +0.127 C 
ATOM      6  C   UNL     1      -4.864   3.769 -24.746  0.00  0.00    +0.165 C 
ATOM      7  C   UNL     1      -5.583   3.767 -23.663  0.00  0.00    +0.078 C 
ATOM      8  C   UNL     1      -5.199   3.586 -22.435  0.00  0.00    +0.012 C 
ATOM      9  C   UNL     1      -3.999   3.362 -21.986  0.00  0.00    -0.001 C 
ATOM     10  C   UNL     1      -2.888   3.265 -22.653  0.00  0.00    +0.005 C 
ATOM     11  C   UNL     1      -2.882   3.134 -21.361  0.00  0.00    -0.028 C 
ATOM     12  C   UNL     1      -3.317   3.075 -20.136  0.00  0.00    +0.011 C 
ATOM     13  C   UNL     1      -1.615   2.925 -21.160  0.00  0.00    +0.011 C 
ATOM     14  O   UNL     1      -5.512   3.977 -25.853  0.00  0.00    -0.294 OA
ATOM     15  C   UNL     1      -2.703   3.367 -23.936  0.00  0.00    +0.035 C 
ENDROOT
BRANCH   5  16
ATOM     16  O   UNL     1      -4.279   3.803 -25.944  0.00  0.00    -0.381 OA
ATOM     17  H   UNL     1      -4.312   2.991 -26.473  0.00  0.00    +0.211 HD
ENDBRANCH   5  16
TORSDOF 1
ENDMDL
MODEL 9
REMARK VINA RESULT:    -8.124      1.126      3.387
REMARK INTER + INTRA:          -8.599
REMARK INTER:                  -8.599
REMARK INTRA:                   0.000
REMARK UNBOUND:                 0.000
REMARK  Name = ZINC000004104700
REMARK  4 active torsions:
REMARK  status: ('A' for Active; 'I' for Inactive)
REMARK    1  A    between atoms: C_1  and  C_2
REMARK    2  A    between atoms: C_5  and  O_6
REMARK    3  A    between atoms: C_14  and  C_15
REMARK    4  A    between atoms: C_14  and  C_16
REMARK                            x       y       z     vdW  Elec       q    Type
REMARK                         _______ _______ _______ _____ _____    ______ ____
ROOT
ATOM      1  C   UNL     1      -0.363   2.888 -23.539  0.00  0.00    +0.008 C 
ATOM      2  C   UNL     1      -1.463   2.988 -22.854  0.00  0.00    -0.007 C 
ATOM      3  C   UNL     1      -1.576   2.857 -21.566  0.00  0.00    +0.007 C 
ATOM      4  C   UNL     1      -2.826   3.025 -21.252  0.00  0.00    +0.043 C 
ATOM      5  C   UNL     1      -3.486   3.261 -22.346  0.00  0.00    +0.127 C 
ATOM      6  C   UNL     1      -4.768   3.474 -22.377  0.00  0.00    +0.165 C 
ATOM      7  C   UNL     1      -5.525   3.718 -23.407  0.00  0.00    +0.078 C 
ATOM      8  C   UNL     1      -5.186   3.809 -24.658  0.00  0.00    +0.012 C 
ATOM      9  C   UNL     1      -4.007   3.677 -25.190  0.00  0.00    -0.001 C 
ATOM     10  C   UNL     1      -2.876   3.424 -24.603  0.00  0.00    +0.005 C 
ATOM     11  C   UNL     1      -2.917   3.581 -25.892  0.00  0.00    -0.028 C 
ATOM     12  C   UNL     1      -3.395   3.798 -27.082  0.00  0.00    +0.011 C 
ATOM     13  C   UNL     1      -1.662   3.408 -26.181  0.00  0.00    +0.011 C 
ATOM     14  O   UNL     1      -5.373   3.440 -21.228  0.00  0.00    -0.294 OA
ATOM     15  C   UNL     1      -2.644   3.238 -23.337  0.00  0.00    +0.035 C 
ENDROOT
BRANCH   5  16
ATOM     16  O   UNL     1      -4.142   3.237 -21.224  0.00  0.00    -0.381 OA
ATOM     17  H   UNL     1      -3.538   3.438 -20.493  0.00  0.00    +0.211 HD
ENDBRANCH   5  16
TORSDOF 1
ENDMDL
