MODEL 1
REMARK VINA RESULT:    -9.650      0.000      0.000
REMARK INTER + INTRA:          -7.922
REMARK INTER:                 -11.859
REMARK INTRA:                   3.937
REMARK UNBOUND:                 3.984
REMARK  Name = COC1=C2Oc3c(OC)ccc4c3[C@@]23CCN(C)[C@H](C4)C3=C[C@H]1C(C)(C)O        ZINC000096316418
REMARK  9 active torsions:
REMARK  status: ('A' for Active; 'I' for Inactive)
REMARK    1  A    between atoms: C_1  and  O_2
REMARK    2  A    between atoms: O_2  and  C_3
REMARK    3  A    between atoms: C_7  and  O_8
REMARK    4  A    between atoms: O_8  and  C_9
REMARK    5  A    between atoms: N_17  and  C_18
REMARK    6  A    between atoms: C_23  and  C_24
REMARK    7  A    between atoms: C_24  and  C_25
REMARK    8  A    between atoms: C_24  and  C_26
REMARK    9  A    between atoms: C_24  and  O_27
REMARK                            x       y       z     vdW  Elec       q    Type
REMARK                         _______ _______ _______ _____ _____    ______ ____
ROOT
ATOM      1  C   UNL     1       0.610   2.856 -24.490  0.00  0.00    +0.146 C 
ATOM      2  C   UNL     1      -0.619   3.070 -24.341  0.00  0.00    +0.159 C 
ATOM      3  O   UNL     1      -1.913   3.550 -24.968  0.00  0.00    -0.452 OA
ATOM      4  C   UNL     1      -3.093   3.498 -24.035  0.00  0.00    +0.174 A 
ATOM      5  C   UNL     1      -4.339   3.715 -23.883  0.00  0.00    +0.162 A 
ATOM      6  C   UNL     1      -4.886   3.467 -22.762  0.00  0.00    +0.050 A 
ATOM      7  C   UNL     1      -4.208   3.012 -21.808  0.00  0.00    +0.008 A 
ATOM      8  C   UNL     1      -2.977   2.799 -21.963  0.00  0.00    -0.034 A 
ATOM      9  C   UNL     1      -2.279   2.335 -20.991  0.00  0.00    +0.094 C 
ATOM     10  C   UNL     1      -1.050   2.122 -21.144  0.00  0.00    +0.096 C 
ATOM     11  C   UNL     1      -0.499   2.368 -22.263  0.00  0.00    -0.007 C 
ATOM     12  C   UNL     1       0.743   2.153 -22.417  0.00  0.00    -0.007 C 
ATOM     13  N   UNL     1       0.354   1.845 -21.213  0.00  0.00    +0.239 N 
ATOM     14  H   UNL     1       0.878   1.475 -20.419  0.00  0.00    +0.204 HD
ATOM     15  C   UNL     1       0.983   1.389 -20.225  0.00  0.00    +0.191 C 
ATOM     16  C   UNL     1       0.999   2.108 -22.447  0.00  0.00    +0.133 C 
ATOM     17  C   UNL     1       0.207   2.622 -23.506  0.00  0.00    +0.075 C 
ATOM     18  C   UNL     1      -2.410   3.038 -23.068  0.00  0.00    +0.020 A 
ATOM     19  C   UNL     1      -1.182   2.824 -23.216  0.00  0.00    +0.091 C 
ATOM     20  C   UNL     1       1.294   2.395 -23.522  0.00  0.00    +0.112 C 
ENDROOT
BRANCH  20  21
ATOM     21  C   UNL     1       2.526   2.180 -23.670  0.00  0.00    +0.074 C 
ATOM     22  C   UNL     1       3.364   3.036 -23.290  0.00  0.00    +0.042 C 
ATOM     23  C   UNL     1       3.463   1.438 -24.062  0.00  0.00    +0.042 C 
BRANCH  21  24
ATOM     24  O   UNL     1       2.269   1.067 -24.196  0.00  0.00    -0.388 OA
ATOM     25  H   UNL     1       2.241   1.164 -25.161  0.00  0.00    +0.210 HD
ENDBRANCH  21  24
ENDBRANCH  20  21
BRANCH   1  27
ATOM     26  C   UNL     1       1.168   4.268 -26.053  0.00  0.00    +0.276 C 
ATOM     27  O   UNL     1       1.163   3.097 -25.594  0.00  0.00    -0.495 OA
ENDBRANCH   1  27
BRANCH   5  28
ATOM     28  O   UNL     1      -5.022   4.170 -24.835  0.00  0.00    -0.491 OA
ATOM     29  C   UNL     1      -5.181   3.488 -25.878  0.00  0.00    +0.277 C 
ENDBRANCH   5  28
TORSDOF 4
ENDMDL
MODEL 2
REMARK VINA RESULT:    -9.532      1.650      3.098
REMARK INTER + INTRA:          -7.777
REMARK INTER:                 -11.842
REMARK INTRA:                   4.065
REMARK UNBOUND:                 3.984
REMARK  Name = COC1=C2Oc3c(OC)ccc4c3[C@@]23CCN(C)[C@H](C4)C3=C[C@H]1C(C)(C)O        ZINC000096316418
REMARK  9 active torsions:
REMARK  status: ('A' for Active; 'I' for Inactive)
REMARK    1  A    between atoms: C_1  and  O_2
REMARK    2  A    between atoms: O_2  and  C_3
REMARK    3  A    between atoms: C_7  and  O_8
REMARK    4  A    between atoms: O_8  and  C_9
REMARK    5  A    between atoms: N_17  and  C_18
REMARK    6  A    between atoms: C_23  and  C_24
REMARK    7  A    between atoms: C_24  and  C_25
REMARK    8  A    between atoms: C_24  and  C_26
REMARK    9  A    between atoms: C_24  and  O_27
REMARK                            x       y       z     vdW  Elec       q    Type
REMARK                         _______ _______ _______ _____ _____    ______ ____
ROOT
ATOM      1  C   UNL     1       0.351   1.757 -22.105  0.00  0.00    +0.146 C 
ATOM      2  C   UNL     1      -0.870   2.051 -22.137  0.00  0.00    +0.159 C 
ATOM      3  O   UNL     1      -2.227   1.926 -21.473  0.00  0.00    -0.452 OA
ATOM      4  C   UNL     1      -3.328   2.646 -22.207  0.00  0.00    +0.174 A 
ATOM      5  C   UNL     1      -4.566   2.944 -22.240  0.00  0.00    +0.162 A 
ATOM      6  C   UNL     1      -5.013   3.659 -23.192  0.00  0.00    +0.050 A 
ATOM      7  C   UNL     1      -4.244   4.070 -24.096  0.00  0.00    +0.008 A 
ATOM      8  C   UNL     1      -3.022   3.773 -24.059  0.00  0.00    -0.034 A 
ATOM      9  C   UNL     1      -2.232   4.191 -24.980  0.00  0.00    +0.094 C 
ATOM     10  C   UNL     1      -1.011   3.895 -24.944  0.00  0.00    +0.096 C 
ATOM     11  C   UNL     1      -0.560   3.181 -23.994  0.00  0.00    -0.007 C 
ATOM     12  C   UNL     1       0.674   2.882 -23.959  0.00  0.00    -0.007 C 
ATOM     13  N   UNL     1       0.393   3.616 -24.998  0.00  0.00    +0.239 N 
ATOM     14  H   UNL     1       0.992   3.965 -25.746  0.00  0.00    +0.204 HD
ATOM     15  C   UNL     1       1.115   4.055 -25.928  0.00  0.00    +0.191 C 
ATOM     16  C   UNL     1       0.929   2.821 -23.953  0.00  0.00    +0.133 C 
ATOM     17  C   UNL     1       0.036   2.371 -22.947  0.00  0.00    +0.075 C 
ATOM     18  C   UNL     1      -2.554   3.064 -23.122  0.00  0.00    +0.020 A 
ATOM     19  C   UNL     1      -1.333   2.771 -23.091  0.00  0.00    +0.091 C 
ATOM     20  C   UNL     1       1.126   2.176 -23.021  0.00  0.00    +0.112 C 
ENDROOT
BRANCH  20  21
ATOM     21  C   UNL     1       2.350   1.882 -22.990  0.00  0.00    +0.074 C 
ATOM     22  C   UNL     1       3.181   2.694 -22.510  0.00  0.00    +0.042 C 
ATOM     23  C   UNL     1       3.283   1.073 -23.231  0.00  0.00    +0.042 C 
BRANCH  21  24
ATOM     24  O   UNL     1       2.098   0.773 -23.527  0.00  0.00    -0.388 OA
ATOM     25  H   UNL     1       2.863   0.484 -24.048  0.00  0.00    +0.210 HD
ENDBRANCH  21  24
ENDBRANCH  20  21
BRANCH   1  27
ATOM     26  C   UNL     1       0.889   1.524 -20.006  0.00  0.00    +0.276 C 
ATOM     27  O   UNL     1       0.806   1.050 -21.168  0.00  0.00    -0.495 OA
ENDBRANCH   1  27
BRANCH   5  28
ATOM     28  O   UNL     1      -5.339   2.534 -21.337  0.00  0.00    -0.491 OA
ATOM     29  C   UNL     1      -6.581   2.532 -21.526  0.00  0.00    +0.277 C 
ENDBRANCH   5  28
TORSDOF 4
ENDMDL
MODEL 3
REMARK VINA RESULT:    -8.695      1.327      5.383
REMARK INTER + INTRA:          -6.745
REMARK INTER:                 -10.833
REMARK INTRA:                   4.088
REMARK UNBOUND:                 3.984
REMARK  Name = COC1=C2Oc3c(OC)ccc4c3[C@@]23CCN(C)[C@H](C4)C3=C[C@H]1C(C)(C)O        ZINC000096316418
REMARK  9 active torsions:
REMARK  status: ('A' for Active; 'I' for Inactive)
REMARK    1  A    between atoms: C_1  and  O_2
REMARK    2  A    between atoms: O_2  and  C_3
REMARK    3  A    between atoms: C_7  and  O_8
REMARK    4  A    between atoms: O_8  and  C_9
REMARK    5  A    between atoms: N_17  and  C_18
REMARK    6  A    between atoms: C_23  and  C_24
REMARK    7  A    between atoms: C_24  and  C_25
REMARK    8  A    between atoms: C_24  and  C_26
REMARK    9  A    between atoms: C_24  and  O_27
REMARK                            x       y       z     vdW  Elec       q    Type
REMARK                         _______ _______ _______ _____ _____    ______ ____
ROOT
ATOM      1  C   UNL     1      -2.449   3.658 -25.042  0.00  0.00    +0.146 C 
ATOM      2  C   UNL     1      -1.321   3.241 -24.679  0.00  0.00    +0.159 C 
ATOM      3  O   UNL     1       0.135   3.028 -25.043  0.00  0.00    -0.452 OA
ATOM      4  C   UNL     1       0.948   2.400 -23.942  0.00  0.00    +0.174 A 
ATOM      5  C   UNL     1       2.091   1.977 -23.573  0.00  0.00    +0.162 A 
ATOM      6  C   UNL     1       2.232   1.488 -22.407  0.00  0.00    +0.050 A 
ATOM      7  C   UNL     1       1.255   1.420 -21.622  0.00  0.00    +0.008 A 
ATOM      8  C   UNL     1       0.127   1.839 -21.991  0.00  0.00    -0.034 A 
ATOM      9  C   UNL     1      -0.875   1.771 -21.192  0.00  0.00    +0.094 C 
ATOM     10  C   UNL     1      -2.003   2.190 -21.559  0.00  0.00    +0.096 C 
ATOM     11  C   UNL     1      -2.147   2.679 -22.723  0.00  0.00    -0.007 C 
ATOM     12  C   UNL     1      -3.287   3.101 -23.094  0.00  0.00    -0.007 C 
ATOM     13  N   UNL     1      -3.326   2.636 -21.877  0.00  0.00    +0.239 N 
ATOM     14  H   UNL     1      -4.100   2.567 -21.217  0.00  0.00    +0.204 HD
ATOM     15  C   UNL     1      -4.267   2.543 -21.051  0.00  0.00    +0.191 C 
ATOM     16  C   UNL     1      -3.522   3.188 -23.169  0.00  0.00    +0.133 C 
ATOM     17  C   UNL     1      -2.399   3.252 -24.033  0.00  0.00    +0.075 C 
ATOM     18  C   UNL     1      -0.038   2.329 -23.145  0.00  0.00    +0.020 A 
ATOM     19  C   UNL     1      -1.166   2.746 -23.507  0.00  0.00    +0.091 C 
ATOM     20  C   UNL     1      -3.437   3.587 -24.245  0.00  0.00    +0.112 C 
ENDROOT
BRANCH  20  21
ATOM     21  C   UNL     1      -4.567   4.004 -24.608  0.00  0.00    +0.074 C 
ATOM     22  C   UNL     1      -5.423   3.198 -25.055  0.00  0.00    +0.042 C 
ATOM     23  C   UNL     1      -5.379   4.952 -24.769  0.00  0.00    +0.042 C 
BRANCH  21  24
ATOM     24  O   UNL     1      -4.233   5.178 -24.302  0.00  0.00    -0.388 OA
ATOM     25  H   UNL     1      -3.285   5.201 -24.098  0.00  0.00    +0.210 HD
ENDBRANCH  21  24
ENDBRANCH  20  21
BRANCH   1  27
ATOM     26  C   UNL     1      -2.583   3.391 -27.202  0.00  0.00    +0.276 C 
ATOM     27  O   UNL     1      -2.602   4.144 -26.193  0.00  0.00    -0.495 OA
ENDBRANCH   1  27
BRANCH   5  28
ATOM     28  O   UNL     1       3.073   2.043 -24.356  0.00  0.00    -0.491 OA
ATOM     29  C   UNL     1       4.159   2.537 -23.963  0.00  0.00    +0.277 C 
ENDBRANCH   5  28
TORSDOF 4
ENDMDL
MODEL 4
REMARK VINA RESULT:    -8.669      1.427      5.341
REMARK INTER + INTRA:          -6.712
REMARK INTER:                 -10.659
REMARK INTRA:                   3.947
REMARK UNBOUND:                 3.984
REMARK  Name = COC1=C2Oc3c(OC)ccc4c3[C@@]23CCN(C)[C@H](C4)C3=C[C@H]1C(C)(C)O        ZINC000096316418
REMARK  9 active torsions:
REMARK  status: ('A' for Active; 'I' for Inactive)
REMARK    1  A    between atoms: C_1  and  O_2
REMARK    2  A    between atoms: O_2  and  C_3
REMARK    3  A    between atoms: C_7  and  O_8
REMARK    4  A    between atoms: O_8  and  C_9
REMARK    5  A    between atoms: N_17  and  C_18
REMARK    6  A    between atoms: C_23  and  C_24
REMARK    7  A    between atoms: C_24  and  C_25
REMARK    8  A    between atoms: C_24  and  C_26
REMARK    9  A    between atoms: C_24  and  O_27
REMARK                            x       y       z     vdW  Elec       q    Type
REMARK                         _______ _______ _______ _____ _____    ______ ____
ROOT
ATOM      1  C   UNL     1      -0.228   3.170 -24.587  0.00  0.00    +0.146 C 
ATOM      2  C   UNL     1       0.814   2.811 -23.984  0.00  0.00    +0.159 C 
ATOM      3  O   UNL     1       2.322   2.661 -24.026  0.00  0.00    -0.452 OA
ATOM      4  C   UNL     1       2.909   2.087 -22.764  0.00  0.00    +0.174 A 
ATOM      5  C   UNL     1       3.965   1.723 -22.152  0.00  0.00    +0.162 A 
ATOM      6  C   UNL     1       3.876   1.258 -20.971  0.00  0.00    +0.050 A 
ATOM      7  C   UNL     1       2.758   1.155 -20.409  0.00  0.00    +0.008 A 
ATOM      8  C   UNL     1       1.717   1.516 -21.018  0.00  0.00    -0.034 A 
ATOM      9  C   UNL     1       0.572   1.414 -20.447  0.00  0.00    +0.094 C 
ATOM     10  C   UNL     1      -0.468   1.774 -21.054  0.00  0.00    +0.096 C 
ATOM     11  C   UNL     1      -0.384   2.240 -22.234  0.00  0.00    -0.007 C 
ATOM     12  C   UNL     1      -1.435   2.603 -22.847  0.00  0.00    -0.007 C 
ATOM     13  N   UNL     1      -1.711   2.154 -21.655  0.00  0.00    +0.239 N 
ATOM     14  H   UNL     1      -2.604   2.059 -21.172  0.00  0.00    +0.204 HD
ATOM     15  C   UNL     1      -2.802   2.029 -21.044  0.00  0.00    +0.191 C 
ATOM     16  C   UNL     1      -1.652   2.678 -22.972  0.00  0.00    +0.133 C 
ATOM     17  C   UNL     1      -0.376   2.781 -23.581  0.00  0.00    +0.075 C 
ATOM     18  C   UNL     1       1.780   1.982 -22.192  0.00  0.00    +0.020 A 
ATOM     19  C   UNL     1       0.738   2.341 -22.794  0.00  0.00    +0.091 C 
ATOM     20  C   UNL     1      -1.358   3.065 -24.014  0.00  0.00    +0.112 C 
ENDROOT
BRANCH  20  21
ATOM     21  C   UNL     1      -2.403   3.424 -24.618  0.00  0.00    +0.074 C 
ATOM     22  C   UNL     1      -2.863   4.582 -24.446  0.00  0.00    +0.042 C 
ATOM     23  C   UNL     1      -3.343   3.171 -25.415  0.00  0.00    +0.042 C 
BRANCH  21  24
ATOM     24  O   UNL     1      -2.475   2.295 -25.166  0.00  0.00    -0.388 OA
ATOM     25  H   UNL     1      -3.110   2.330 -25.898  0.00  0.00    +0.210 HD
ENDBRANCH  21  24
ENDBRANCH  20  21
BRANCH   1  27
ATOM     26  C   UNL     1       0.859   4.292 -26.107  0.00  0.00    +0.276 C 
ATOM     27  O   UNL     1      -0.153   3.632 -25.755  0.00  0.00    -0.495 OA
ENDBRANCH   1  27
BRANCH   5  28
ATOM     28  O   UNL     1       5.086   1.824 -22.711  0.00  0.00    -0.491 OA
ATOM     29  C   UNL     1       5.869   2.753 -22.389  0.00  0.00    +0.277 C 
ENDBRANCH   5  28
TORSDOF 4
ENDMDL
MODEL 5
REMARK VINA RESULT:    -8.170      2.041      6.171
REMARK INTER + INTRA:          -6.096
REMARK INTER:                 -11.058
REMARK INTRA:                   4.962
REMARK UNBOUND:                 3.984
REMARK  Name = COC1=C2Oc3c(OC)ccc4c3[C@@]23CCN(C)[C@H](C4)C3=C[C@H]1C(C)(C)O        ZINC000096316418
REMARK  9 active torsions:
REMARK  status: ('A' for Active; 'I' for Inactive)
REMARK    1  A    between atoms: C_1  and  O_2
REMARK    2  A    between atoms: O_2  and  C_3
REMARK    3  A    between atoms: C_7  and  O_8
REMARK    4  A    between atoms: O_8  and  C_9
REMARK    5  A    between atoms: N_17  and  C_18
REMARK    6  A    between atoms: C_23  and  C_24
REMARK    7  A    between atoms: C_24  and  C_25
REMARK    8  A    between atoms: C_24  and  C_26
REMARK    9  A    between atoms: C_24  and  O_27
REMARK                            x       y       z     vdW  Elec       q    Type
REMARK                         _______ _______ _______ _____ _____    ______ ____
ROOT
ATOM      1  C   UNL     1      -3.011   3.058 -21.681  0.00  0.00    +0.146 C 
ATOM      2  C   UNL     1      -1.833   3.182 -22.100  0.00  0.00    +0.159 C 
ATOM      3  O   UNL     1      -0.359   3.256 -21.751  0.00  0.00    -0.452 OA
ATOM      4  C   UNL     1       0.537   3.433 -22.949  0.00  0.00    +0.174 A 
ATOM      5  C   UNL     1       1.731   3.560 -23.373  0.00  0.00    +0.162 A 
ATOM      6  C   UNL     1       1.941   3.692 -24.621  0.00  0.00    +0.050 A 
ATOM      7  C   UNL     1       0.982   3.699 -25.432  0.00  0.00    +0.008 A 
ATOM      8  C   UNL     1      -0.196   3.574 -25.007  0.00  0.00    -0.034 A 
ATOM      9  C   UNL     1      -1.179   3.580 -25.832  0.00  0.00    +0.094 C 
ATOM     10  C   UNL     1      -2.356   3.455 -25.409  0.00  0.00    +0.096 C 
ATOM     11  C   UNL     1      -2.571   3.323 -24.164  0.00  0.00    -0.007 C 
ATOM     12  C   UNL     1      -3.761   3.196 -23.737  0.00  0.00    -0.007 C 
ATOM     13  N   UNL     1      -3.732   3.320 -25.034  0.00  0.00    +0.239 N 
ATOM     14  H   UNL     1      -4.489   3.330 -25.717  0.00  0.00    +0.204 HD
ATOM     15  C   UNL     1      -4.651   3.334 -25.890  0.00  0.00    +0.191 C 
ATOM     16  C   UNL     1      -4.006   3.171 -23.651  0.00  0.00    +0.133 C 
ATOM     17  C   UNL     1      -2.903   3.167 -22.759  0.00  0.00    +0.075 C 
ATOM     18  C   UNL     1      -0.430   3.441 -23.772  0.00  0.00    +0.020 A 
ATOM     19  C   UNL     1      -1.608   3.316 -23.354  0.00  0.00    +0.091 C 
ATOM     20  C   UNL     1      -3.979   3.065 -22.505  0.00  0.00    +0.112 C 
ENDROOT
BRANCH  20  21
ATOM     21  C   UNL     1      -5.160   2.940 -22.087  0.00  0.00    +0.074 C 
ATOM     22  C   UNL     1      -5.487   1.928 -21.416  0.00  0.00    +0.042 C 
ATOM     23  C   UNL     1      -6.335   3.381 -21.991  0.00  0.00    +0.042 C 
BRANCH  21  24
ATOM     24  O   UNL     1      -5.465   4.038 -22.620  0.00  0.00    -0.388 OA
ATOM     25  H   UNL     1      -6.431   4.116 -22.668  0.00  0.00    +0.210 HD
ENDBRANCH  21  24
ENDBRANCH  20  21
BRANCH   1  27
ATOM     26  C   UNL     1      -2.969   3.868 -19.658  0.00  0.00    +0.276 C 
ATOM     27  O   UNL     1      -3.232   2.926 -20.449  0.00  0.00    -0.495 OA
ENDBRANCH   1  27
BRANCH   5  28
ATOM     28  O   UNL     1       2.694   3.553 -22.565  0.00  0.00    -0.491 OA
ATOM     29  C   UNL     1       3.254   2.470 -22.262  0.00  0.00    +0.277 C 
ENDBRANCH   5  28
TORSDOF 4
ENDMDL
MODEL 6
REMARK VINA RESULT:    -8.003      2.376      3.717
REMARK INTER + INTRA:          -5.890
REMARK INTER:                  -9.872
REMARK INTRA:                   3.982
REMARK UNBOUND:                 3.984
REMARK  Name = COC1=C2Oc3c(OC)ccc4c3[C@@]23CCN(C)[C@H](C4)C3=C[C@H]1C(C)(C)O        ZINC000096316418
REMARK  9 active torsions:
REMARK  status: ('A' for Active; 'I' for Inactive)
REMARK    1  A    between atoms: C_1  and  O_2
REMARK    2  A    between atoms: O_2  and  C_3
REMARK    3  A    between atoms: C_7  and  O_8
REMARK    4  A    between atoms: O_8  and  C_9
REMARK    5  A    between atoms: N_17  and  C_18
REMARK    6  A    between atoms: C_23  and  C_24
REMARK    7  A    between atoms: C_24  and  C_25
REMARK    8  A    between atoms: C_24  and  C_26
REMARK    9  A    between atoms: C_24  and  O_27
REMARK                            x       y       z     vdW  Elec       q    Type
REMARK                         _______ _______ _______ _____ _____    ______ ____
ROOT
ATOM      1  C   UNL     1       4.018   4.215 -22.860  0.00  0.00    +0.146 C 
ATOM      2  C   UNL     1       2.769   4.133 -22.971  0.00  0.00    +0.159 C 
ATOM      3  O   UNL     1       1.484   4.800 -23.419  0.00  0.00    -0.452 OA
ATOM      4  C   UNL     1       0.254   3.961 -23.191  0.00  0.00    +0.174 A 
ATOM      5  C   UNL     1      -1.012   3.877 -23.303  0.00  0.00    +0.162 A 
ATOM      6  C   UNL     1      -1.607   2.826 -22.905  0.00  0.00    +0.050 A 
ATOM      7  C   UNL     1      -0.957   1.875 -22.404  0.00  0.00    +0.008 A 
ATOM      8  C   UNL     1       0.294   1.963 -22.296  0.00  0.00    -0.034 A 
ATOM      9  C   UNL     1       0.963   0.994 -21.786  0.00  0.00    +0.094 C 
ATOM     10  C   UNL     1       2.212   1.080 -21.677  0.00  0.00    +0.096 C 
ATOM     11  C   UNL     1       2.811   2.129 -22.073  0.00  0.00    -0.007 C 
ATOM     12  C   UNL     1       4.074   2.215 -21.963  0.00  0.00    -0.007 C 
ATOM     13  N   UNL     1       3.635   1.077 -21.507  0.00  0.00    +0.239 N 
ATOM     14  H   UNL     1       4.134   0.288 -21.097  0.00  0.00    +0.204 HD
ATOM     15  C   UNL     1       4.233   0.096 -21.000  0.00  0.00    +0.191 C 
ATOM     16  C   UNL     1       4.334   2.232 -21.939  0.00  0.00    +0.133 C 
ATOM     17  C   UNL     1       3.572   3.289 -22.500  0.00  0.00    +0.075 C 
ATOM     18  C   UNL     1       0.908   2.997 -22.684  0.00  0.00    +0.020 A 
ATOM     19  C   UNL     1       2.156   3.079 -22.574  0.00  0.00    +0.091 C 
ATOM     20  C   UNL     1       4.672   3.251 -22.353  0.00  0.00    +0.112 C 
ENDROOT
BRANCH  20  21
ATOM     21  C   UNL     1       5.924   3.333 -22.242  0.00  0.00    +0.074 C 
ATOM     22  C   UNL     1       6.438   3.688 -21.151  0.00  0.00    +0.042 C 
ATOM     23  C   UNL     1       7.072   3.221 -22.744  0.00  0.00    +0.042 C 
BRANCH  21  24
ATOM     24  O   UNL     1       6.054   2.969 -23.439  0.00  0.00    -0.388 OA
ATOM     25  H   UNL     1       6.107   3.750 -24.011  0.00  0.00    +0.210 HD
ENDBRANCH  21  24
ENDBRANCH  20  21
BRANCH   1  27
ATOM     26  C   UNL     1       4.423   6.348 -22.668  0.00  0.00    +0.276 C 
ATOM     27  O   UNL     1       4.619   5.250 -23.250  0.00  0.00    -0.495 OA
ENDBRANCH   1  27
BRANCH   5  28
ATOM     28  O   UNL     1      -1.667   4.826 -23.803  0.00  0.00    -0.491 OA
ATOM     29  C   UNL     1      -2.762   4.602 -24.375  0.00  0.00    +0.277 C 
ENDBRANCH   5  28
TORSDOF 4
ENDMDL
MODEL 7
REMARK VINA RESULT:    -7.607      3.034      6.671
REMARK INTER + INTRA:          -5.401
REMARK INTER:                  -9.690
REMARK INTRA:                   4.288
REMARK UNBOUND:                 3.984
REMARK  Name = COC1=C2Oc3c(OC)ccc4c3[C@@]23CCN(C)[C@H](C4)C3=C[C@H]1C(C)(C)O        ZINC000096316418
REMARK  9 active torsions:
REMARK  status: ('A' for Active; 'I' for Inactive)
REMARK    1  A    between atoms: C_1  and  O_2
REMARK    2  A    between atoms: O_2  and  C_3
REMARK    3  A    between atoms: C_7  and  O_8
REMARK    4  A    between atoms: O_8  and  C_9
REMARK    5  A    between atoms: N_17  and  C_18
REMARK    6  A    between atoms: C_23  and  C_24
REMARK    7  A    between atoms: C_24  and  C_25
REMARK    8  A    between atoms: C_24  and  C_26
REMARK    9  A    between atoms: C_24  and  O_27
REMARK                            x       y       z     vdW  Elec       q    Type
REMARK                         _______ _______ _______ _____ _____    ______ ____
ROOT
ATOM      1  C   UNL     1       0.997   4.748 -23.669  0.00  0.00    +0.146 C 
ATOM      2  C   UNL     1       2.113   5.180 -23.287  0.00  0.00    +0.159 C 
ATOM      3  O   UNL     1       2.894   6.332 -22.684  0.00  0.00    -0.452 OA
ATOM      4  C   UNL     1       4.363   6.046 -22.520  0.00  0.00    +0.174 A 
ATOM      5  C   UNL     1       5.495   6.483 -22.133  0.00  0.00    +0.162 A 
ATOM      6  C   UNL     1       6.522   5.740 -22.232  0.00  0.00    +0.050 A 
ATOM      7  C   UNL     1       6.426   4.581 -22.708  0.00  0.00    +0.008 A 
ATOM      8  C   UNL     1       5.306   4.153 -23.089  0.00  0.00    -0.034 A 
ATOM      9  C   UNL     1       5.203   2.970 -23.576  0.00  0.00    +0.094 C 
ATOM     10  C   UNL     1       4.084   2.541 -23.957  0.00  0.00    +0.096 C 
ATOM     11  C   UNL     1       3.056   3.281 -23.859  0.00  0.00    -0.007 C 
ATOM     12  C   UNL     1       1.926   2.847 -24.244  0.00  0.00    -0.007 C 
ATOM     13  N   UNL     1       2.861   1.957 -24.419  0.00  0.00    +0.239 N 
ATOM     14  H   UNL     1       2.816   1.012 -24.801  0.00  0.00    +0.204 HD
ATOM     15  C   UNL     1       2.825   0.792 -24.886  0.00  0.00    +0.191 C 
ATOM     16  C   UNL     1       1.694   2.757 -24.324  0.00  0.00    +0.133 C 
ATOM     17  C   UNL     1       1.833   4.060 -23.782  0.00  0.00    +0.075 C 
ATOM     18  C   UNL     1       4.271   4.874 -23.000  0.00  0.00    +0.020 A 
ATOM     19  C   UNL     1       3.155   4.441 -23.382  0.00  0.00    +0.091 C 
ATOM     20  C   UNL     1       0.904   3.575 -24.150  0.00  0.00    +0.112 C 
ENDROOT
BRANCH  20  21
ATOM     21  C   UNL     1      -0.214   3.141 -24.532  0.00  0.00    +0.074 C 
ATOM     22  C   UNL     1      -0.901   2.413 -23.772  0.00  0.00    +0.042 C 
ATOM     23  C   UNL     1      -1.108   3.060 -25.414  0.00  0.00    +0.042 C 
BRANCH  21  24
ATOM     24  O   UNL     1      -0.067   3.731 -25.633  0.00  0.00    -0.388 OA
ATOM     25  H   UNL     1       0.557   3.234 -26.186  0.00  0.00    +0.210 HD
ENDBRANCH  21  24
ENDBRANCH  20  21
BRANCH   1  27
ATOM     26  C   UNL     1      -0.612   5.597 -22.468  0.00  0.00    +0.276 C 
ATOM     27  O   UNL     1      -0.027   5.474 -23.575  0.00  0.00    -0.495 OA
ENDBRANCH   1  27
BRANCH   5  28
ATOM     28  O   UNL     1       5.595   7.642 -21.656  0.00  0.00    -0.491 OA
ATOM     29  C   UNL     1       6.366   7.860 -20.688  0.00  0.00    +0.277 C 
ENDBRANCH   5  28
TORSDOF 4
ENDMDL
MODEL 8
REMARK VINA RESULT:    -7.418      4.052      6.275
REMARK INTER + INTRA:          -5.169
REMARK INTER:                  -9.057
REMARK INTRA:                   3.888
REMARK UNBOUND:                 3.984
REMARK  Name = COC1=C2Oc3c(OC)ccc4c3[C@@]23CCN(C)[C@H](C4)C3=C[C@H]1C(C)(C)O        ZINC000096316418
REMARK  9 active torsions:
REMARK  status: ('A' for Active; 'I' for Inactive)
REMARK    1  A    between atoms: C_1  and  O_2
REMARK    2  A    between atoms: O_2  and  C_3
REMARK    3  A    between atoms: C_7  and  O_8
REMARK    4  A    between atoms: O_8  and  C_9
REMARK    5  A    between atoms: N_17  and  C_18
REMARK    6  A    between atoms: C_23  and  C_24
REMARK    7  A    between atoms: C_24  and  C_25
REMARK    8  A    between atoms: C_24  and  C_26
REMARK    9  A    between atoms: C_24  and  O_27
REMARK                            x       y       z     vdW  Elec       q    Type
REMARK                         _______ _______ _______ _____ _____    ______ ____
ROOT
ATOM      1  C   UNL     1       4.993   6.568 -22.160  0.00  0.00    +0.146 C 
ATOM      2  C   UNL     1       3.953   6.006 -22.587  0.00  0.00    +0.159 C 
ATOM      3  O   UNL     1       2.458   6.100 -22.816  0.00  0.00    -0.452 OA
ATOM      4  C   UNL     1       1.863   4.868 -23.446  0.00  0.00    +0.174 A 
ATOM      5  C   UNL     1       0.810   4.298 -23.878  0.00  0.00    +0.162 A 
ATOM      6  C   UNL     1       0.887   3.124 -24.362  0.00  0.00    +0.050 A 
ATOM      7  C   UNL     1       1.991   2.527 -24.416  0.00  0.00    +0.008 A 
ATOM      8  C   UNL     1       3.029   3.096 -23.988  0.00  0.00    -0.034 A 
ATOM      9  C   UNL     1       4.159   2.490 -24.041  0.00  0.00    +0.094 C 
ATOM     10  C   UNL     1       5.197   3.057 -23.613  0.00  0.00    +0.096 C 
ATOM     11  C   UNL     1       5.125   4.229 -23.129  0.00  0.00    -0.007 C 
ATOM     12  C   UNL     1       6.174   4.801 -22.697  0.00  0.00    -0.007 C 
ATOM     13  N   UNL     1       6.436   3.610 -23.155  0.00  0.00    +0.239 N 
ATOM     14  H   UNL     1       7.318   3.100 -23.212  0.00  0.00    +0.204 HD
ATOM     15  C   UNL     1       7.512   2.966 -23.234  0.00  0.00    +0.191 C 
ATOM     16  C   UNL     1       6.390   4.917 -22.609  0.00  0.00    +0.133 C 
ATOM     17  C   UNL     1       5.130   5.565 -22.561  0.00  0.00    +0.075 C 
ATOM     18  C   UNL     1       2.978   4.262 -23.502  0.00  0.00    +0.020 A 
ATOM     19  C   UNL     1       4.017   4.824 -23.077  0.00  0.00    +0.091 C 
ATOM     20  C   UNL     1       6.108   5.962 -22.217  0.00  0.00    +0.112 C 
ENDROOT
BRANCH  20  21
ATOM     21  C   UNL     1       7.150   6.525 -21.790  0.00  0.00    +0.074 C 
ATOM     22  C   UNL     1       7.530   6.333 -20.606  0.00  0.00    +0.042 C 
ATOM     23  C   UNL     1       8.134   7.285 -21.981  0.00  0.00    +0.042 C 
BRANCH  21  24
ATOM     24  O   UNL     1       7.314   7.071 -22.911  0.00  0.00    -0.388 OA
ATOM     25  H   UNL     1       6.453   7.203 -23.336  0.00  0.00    +0.210 HD
ENDBRANCH  21  24
ENDBRANCH  20  21
BRANCH   1  27
ATOM     26  C   UNL     1       4.214   8.603 -22.234  0.00  0.00    +0.276 C 
ATOM     27  O   UNL     1       4.930   7.730 -21.679  0.00  0.00    -0.495 OA
ENDBRANCH   1  27
BRANCH   5  28
ATOM     28  O   UNL     1      -0.297   4.891 -23.826  0.00  0.00    -0.491 OA
ATOM     29  C   UNL     1      -1.005   4.814 -22.791  0.00  0.00    +0.277 C 
ENDBRANCH   5  28
TORSDOF 4
ENDMDL
MODEL 9
REMARK VINA RESULT:    -7.258      2.211      6.422
REMARK INTER + INTRA:          -4.972
REMARK INTER:                  -8.956
REMARK INTRA:                   3.984
REMARK UNBOUND:                 3.984
REMARK  Name = COC1=C2Oc3c(OC)ccc4c3[C@@]23CCN(C)[C@H](C4)C3=C[C@H]1C(C)(C)O        ZINC000096316418
REMARK  9 active torsions:
REMARK  status: ('A' for Active; 'I' for Inactive)
REMARK    1  A    between atoms: C_1  and  O_2
REMARK    2  A    between atoms: O_2  and  C_3
REMARK    3  A    between atoms: C_7  and  O_8
REMARK    4  A    between atoms: O_8  and  C_9
REMARK    5  A    between atoms: N_17  and  C_18
REMARK    6  A    between atoms: C_23  and  C_24
REMARK    7  A    between atoms: C_24  and  C_25
REMARK    8  A    between atoms: C_24  and  C_26
REMARK    9  A    between atoms: C_24  and  O_27
REMARK                            x       y       z     vdW  Elec       q    Type
REMARK                         _______ _______ _______ _____ _____    ______ ____
ROOT
ATOM      1  C   UNL     1      -0.401   2.209 -22.227  0.00  0.00    +0.146 C 
ATOM      2  C   UNL     1       0.773   1.833 -21.985  0.00  0.00    +0.159 C 
ATOM      3  O   UNL     1       1.703   1.078 -21.055  0.00  0.00    -0.452 OA
ATOM      4  C   UNL     1       3.140   1.078 -21.505  0.00  0.00    +0.174 A 
ATOM      5  C   UNL     1       4.330   0.698 -21.261  0.00  0.00    +0.162 A 
ATOM      6  C   UNL     1       5.266   1.013 -22.063  0.00  0.00    +0.050 A 
ATOM      7  C   UNL     1       5.023   1.694 -23.090  0.00  0.00    +0.008 A 
ATOM      8  C   UNL     1       3.844   2.068 -23.327  0.00  0.00    -0.034 A 
ATOM      9  C   UNL     1       3.591   2.764 -24.374  0.00  0.00    +0.094 C 
ATOM     10  C   UNL     1       2.415   3.139 -24.612  0.00  0.00    +0.096 C 
ATOM     11  C   UNL     1       1.477   2.826 -23.813  0.00  0.00    -0.007 C 
ATOM     12  C   UNL     1       0.289   3.205 -24.054  0.00  0.00    -0.007 C 
ATOM     13  N   UNL     1       1.114   3.615 -24.975  0.00  0.00    +0.239 N 
ATOM     14  H   UNL     1       0.948   4.167 -25.817  0.00  0.00    +0.204 HD
ATOM     15  C   UNL     1       0.929   4.294 -26.016  0.00  0.00    +0.191 C 
ATOM     16  C   UNL     1       0.045   3.283 -24.105  0.00  0.00    +0.133 C 
ATOM     17  C   UNL     1       0.350   2.513 -22.954  0.00  0.00    +0.075 C 
ATOM     18  C   UNL     1       2.898   1.767 -22.544  0.00  0.00    +0.020 A 
ATOM     19  C   UNL     1       1.725   2.144 -22.786  0.00  0.00    +0.091 C 
ATOM     20  C   UNL     1      -0.643   2.898 -23.267  0.00  0.00    +0.112 C 
ENDROOT
BRANCH  20  21
ATOM     21  C   UNL     1      -1.820   3.276 -23.509  0.00  0.00    +0.074 C 
ATOM     22  C   UNL     1      -2.267   4.324 -22.979  0.00  0.00    +0.042 C 
ATOM     23  C   UNL     1      -2.920   3.105 -24.095  0.00  0.00    +0.042 C 
BRANCH  21  24
ATOM     24  O   UNL     1      -1.984   2.282 -24.262  0.00  0.00    -0.388 OA
ATOM     25  H   UNL     1      -2.917   2.017 -24.250  0.00  0.00    +0.210 HD
ENDBRANCH  21  24
ENDBRANCH  20  21
BRANCH   1  27
ATOM     26  C   UNL     1      -1.533   0.699 -21.136  0.00  0.00    +0.276 C 
ATOM     27  O   UNL     1      -1.335   1.904 -21.440  0.00  0.00    -0.495 OA
ENDBRANCH   1  27
BRANCH   5  28
ATOM     28  O   UNL     1       4.578   0.015 -20.235  0.00  0.00    -0.491 OA
ATOM     29  C   UNL     1       5.680  -0.579 -20.125  0.00  0.00    +0.277 C 
ENDBRANCH   5  28
TORSDOF 4
ENDMDL
