MODEL 1
REMARK VINA RESULT:    -9.641      0.000      0.000
REMARK INTER + INTRA:          -9.915
REMARK INTER:                 -10.657
REMARK INTRA:                   0.742
REMARK UNBOUND:                 0.853
REMARK  Name = ZINC000005762051
REMARK  6 active torsions:
REMARK  status: ('A' for Active; 'I' for Inactive)
REMARK    1  A    between atoms: C_1  and  O_2
REMARK    2  A    between atoms: O_2  and  C_3
REMARK    3  A    between atoms: C_6  and  O_7
REMARK    4  A    between atoms: O_7  and  C_8
REMARK    5  A    between atoms: C_17  and  C_18
REMARK    6  A    between atoms: C_17  and  C_19
REMARK                            x       y       z     vdW  Elec       q    Type
REMARK                         _______ _______ _______ _____ _____    ______ ____
ROOT
ATOM      1  C   UNL     1      -0.368   2.859 -24.128  0.00  0.00    +0.142 A 
ATOM      2  C   UNL     1      -1.630   3.164 -24.182  0.00  0.00    +0.063 A 
ATOM      3  C   UNL     1      -2.371   3.056 -23.119  0.00  0.00    +0.177 A 
ATOM      4  O   UNL     1      -3.634   3.361 -23.173  0.00  0.00    -0.478 OA
ATOM      5  C   UNL     1      -4.155   3.774 -24.290  0.00  0.00    +0.124 C 
ATOM      6  C   UNL     1      -3.414   3.883 -25.352  0.00  0.00    +0.020 C 
ATOM      7  C   UNL     1      -5.204   3.815 -23.522  0.00  0.00    +0.060 C 
ATOM      8  C   UNL     1      -5.041   4.202 -25.140  0.00  0.00    +0.060 C 
ATOM      9  C   UNL     1      -1.849   2.642 -22.002  0.00  0.00    +0.206 A 
ATOM     10  C   UNL     1      -0.587   2.337 -21.949  0.00  0.00    +0.188 A 
ATOM     11  O   UNL     1      -0.065   1.924 -20.831  0.00  0.00    -0.418 OA
ATOM     12  C   UNL     1       1.197   1.619 -20.778  0.00  0.00    +0.337 A 
ATOM     13  C   UNL     1       1.938   1.727 -21.840  0.00  0.00    +0.093 A 
ATOM     14  C   UNL     1       1.417   2.140 -22.957  0.00  0.00    +0.022 A 
ATOM     15  O   UNL     1       1.719   1.206 -19.662  0.00  0.00    -0.245 OA
ATOM     16  C   UNL     1      -2.152   3.578 -25.299  0.00  0.00    +0.015 C 
ATOM     17  C   UNL     1       0.154   2.446 -23.011  0.00  0.00    +0.064 A 
ENDROOT
BRANCH   1  19
ATOM     18  C   UNL     1       1.072   4.045 -25.389  0.00  0.00    +0.277 C 
ATOM     19  O   UNL     1       0.373   2.967 -25.191  0.00  0.00    -0.494 OA
ENDBRANCH   1  19
BRANCH   9  20
ATOM     20  O   UNL     1      -2.590   2.534 -20.939  0.00  0.00    -0.488 OA
ATOM     21  C   UNL     1      -2.948   3.599 -20.286  0.00  0.00    +0.277 C 
ENDBRANCH   9  20
TORSDOF 2
ENDMDL
MODEL 2
REMARK VINA RESULT:    -9.156      1.503      3.029
REMARK INTER + INTRA:          -9.374
REMARK INTER:                 -10.150
REMARK INTRA:                   0.776
REMARK UNBOUND:                 0.853
REMARK  Name = ZINC000005762051
REMARK  6 active torsions:
REMARK  status: ('A' for Active; 'I' for Inactive)
REMARK    1  A    between atoms: C_1  and  O_2
REMARK    2  A    between atoms: O_2  and  C_3
REMARK    3  A    between atoms: C_6  and  O_7
REMARK    4  A    between atoms: O_7  and  C_8
REMARK    5  A    between atoms: C_17  and  C_18
REMARK    6  A    between atoms: C_17  and  C_19
REMARK                            x       y       z     vdW  Elec       q    Type
REMARK                         _______ _______ _______ _____ _____    ______ ____
ROOT
ATOM      1  C   UNL     1      -2.182   3.790 -24.863  0.00  0.00    +0.142 A 
ATOM      2  C   UNL     1      -3.002   3.515 -23.893  0.00  0.00    +0.063 A 
ATOM      3  C   UNL     1      -2.544   3.069 -22.761  0.00  0.00    +0.177 A 
ATOM      4  O   UNL     1      -3.365   2.794 -21.791  0.00  0.00    -0.478 OA
ATOM      5  C   UNL     1      -4.643   2.965 -21.952  0.00  0.00    +0.124 C 
ATOM      6  C   UNL     1      -5.101   3.412 -23.084  0.00  0.00    +0.020 C 
ATOM      7  C   UNL     1      -4.627   2.525 -20.729  0.00  0.00    +0.060 C 
ATOM      8  C   UNL     1      -5.916   2.984 -21.689  0.00  0.00    +0.060 C 
ATOM      9  C   UNL     1      -1.265   2.897 -22.600  0.00  0.00    +0.206 A 
ATOM     10  C   UNL     1      -0.445   3.172 -23.570  0.00  0.00    +0.188 A 
ATOM     11  O   UNL     1       0.834   3.001 -23.408  0.00  0.00    -0.418 OA
ATOM     12  C   UNL     1       1.654   3.276 -24.378  0.00  0.00    +0.337 A 
ATOM     13  C   UNL     1       1.196   3.723 -25.510  0.00  0.00    +0.093 A 
ATOM     14  C   UNL     1      -0.083   3.894 -25.672  0.00  0.00    +0.022 A 
ATOM     15  O   UNL     1       2.932   3.105 -24.218  0.00  0.00    -0.245 OA
ATOM     16  C   UNL     1      -4.281   3.687 -24.054  0.00  0.00    +0.015 C 
ATOM     17  C   UNL     1      -0.904   3.619 -24.701  0.00  0.00    +0.064 A 
ENDROOT
BRANCH   1  19
ATOM     18  C   UNL     1      -3.148   3.412 -26.861  0.00  0.00    +0.277 C 
ATOM     19  O   UNL     1      -2.640   4.237 -25.994  0.00  0.00    -0.494 OA
ENDBRANCH   1  19
BRANCH   9  20
ATOM     20  O   UNL     1      -0.807   2.451 -21.468  0.00  0.00    -0.488 OA
ATOM     21  C   UNL     1      -0.447   1.207 -21.358  0.00  0.00    +0.277 C 
ENDBRANCH   9  20
TORSDOF 2
ENDMDL
MODEL 3
REMARK VINA RESULT:    -9.009      1.249      5.859
REMARK INTER + INTRA:          -9.209
REMARK INTER:                  -9.967
REMARK INTRA:                   0.758
REMARK UNBOUND:                 0.853
REMARK  Name = ZINC000005762051
REMARK  6 active torsions:
REMARK  status: ('A' for Active; 'I' for Inactive)
REMARK    1  A    between atoms: C_1  and  O_2
REMARK    2  A    between atoms: O_2  and  C_3
REMARK    3  A    between atoms: C_6  and  O_7
REMARK    4  A    between atoms: O_7  and  C_8
REMARK    5  A    between atoms: C_17  and  C_18
REMARK    6  A    between atoms: C_17  and  C_19
REMARK                            x       y       z     vdW  Elec       q    Type
REMARK                         _______ _______ _______ _____ _____    ______ ____
ROOT
ATOM      1  C   UNL     1      -2.042   2.617 -22.095  0.00  0.00    +0.142 A 
ATOM      2  C   UNL     1      -0.783   2.294 -22.096  0.00  0.00    +0.063 A 
ATOM      3  C   UNL     1      -0.066   2.476 -23.166  0.00  0.00    +0.177 A 
ATOM      4  O   UNL     1       1.193   2.152 -23.166  0.00  0.00    -0.478 OA
ATOM      5  C   UNL     1       1.735   1.647 -22.099  0.00  0.00    +0.124 C 
ATOM      6  C   UNL     1       1.019   1.464 -21.030  0.00  0.00    +0.020 C 
ATOM      7  C   UNL     1       2.765   1.654 -22.892  0.00  0.00    +0.060 C 
ATOM      8  C   UNL     1       2.635   1.144 -21.306  0.00  0.00    +0.060 C 
ATOM      9  C   UNL     1      -0.608   2.981 -24.233  0.00  0.00    +0.206 A 
ATOM     10  C   UNL     1      -1.867   3.305 -24.232  0.00  0.00    +0.188 A 
ATOM     11  O   UNL     1      -2.410   3.811 -25.300  0.00  0.00    -0.418 OA
ATOM     12  C   UNL     1      -3.668   4.134 -25.299  0.00  0.00    +0.337 A 
ATOM     13  C   UNL     1      -4.385   3.952 -24.230  0.00  0.00    +0.093 A 
ATOM     14  C   UNL     1      -3.843   3.446 -23.162  0.00  0.00    +0.022 A 
ATOM     15  O   UNL     1      -4.211   4.639 -26.366  0.00  0.00    -0.245 OA
ATOM     16  C   UNL     1      -0.240   1.788 -21.028  0.00  0.00    +0.015 C 
ATOM     17  C   UNL     1      -2.584   3.122 -23.163  0.00  0.00    +0.064 A 
ENDROOT
BRANCH   1  19
ATOM     18  C   UNL     1      -3.028   3.438 -20.245  0.00  0.00    +0.277 C 
ATOM     19  O   UNL     1      -2.759   2.435 -21.026  0.00  0.00    -0.494 OA
ENDBRANCH   1  19
BRANCH   9  20
ATOM     20  O   UNL     1       0.109   3.164 -25.302  0.00  0.00    -0.488 OA
ATOM     21  C   UNL     1       0.926   4.172 -25.373  0.00  0.00    +0.277 C 
ENDBRANCH   9  20
TORSDOF 2
ENDMDL
MODEL 4
REMARK VINA RESULT:    -8.741      1.359      3.818
REMARK INTER + INTRA:          -8.909
REMARK INTER:                  -9.747
REMARK INTRA:                   0.838
REMARK UNBOUND:                 0.853
REMARK  Name = ZINC000005762051
REMARK  6 active torsions:
REMARK  status: ('A' for Active; 'I' for Inactive)
REMARK    1  A    between atoms: C_1  and  O_2
REMARK    2  A    between atoms: O_2  and  C_3
REMARK    3  A    between atoms: C_6  and  O_7
REMARK    4  A    between atoms: O_7  and  C_8
REMARK    5  A    between atoms: C_17  and  C_18
REMARK    6  A    between atoms: C_17  and  C_19
REMARK                            x       y       z     vdW  Elec       q    Type
REMARK                         _______ _______ _______ _____ _____    ______ ____
ROOT
ATOM      1  C   UNL     1      -1.173   2.805 -22.130  0.00  0.00    +0.142 A 
ATOM      2  C   UNL     1      -2.470   2.883 -22.133  0.00  0.00    +0.063 A 
ATOM      3  C   UNL     1      -3.090   3.356 -23.173  0.00  0.00    +0.177 A 
ATOM      4  O   UNL     1      -4.388   3.434 -23.176  0.00  0.00    -0.478 OA
ATOM      5  C   UNL     1      -5.065   3.039 -22.139  0.00  0.00    +0.124 C 
ATOM      6  C   UNL     1      -4.445   2.565 -21.099  0.00  0.00    +0.020 C 
ATOM      7  C   UNL     1      -6.038   3.421 -22.912  0.00  0.00    +0.060 C 
ATOM      8  C   UNL     1      -6.080   2.776 -21.371  0.00  0.00    +0.060 C 
ATOM      9  C   UNL     1      -2.413   3.751 -24.209  0.00  0.00    +0.206 A 
ATOM     10  C   UNL     1      -1.115   3.673 -24.206  0.00  0.00    +0.188 A 
ATOM     11  O   UNL     1      -0.437   4.069 -25.243  0.00  0.00    -0.418 OA
ATOM     12  C   UNL     1       0.860   3.991 -25.240  0.00  0.00    +0.337 A 
ATOM     13  C   UNL     1       1.480   3.517 -24.200  0.00  0.00    +0.093 A 
ATOM     14  C   UNL     1       0.803   3.122 -23.163  0.00  0.00    +0.022 A 
ATOM     15  O   UNL     1       1.538   4.386 -26.276  0.00  0.00    -0.245 OA
ATOM     16  C   UNL     1      -3.148   2.487 -21.096  0.00  0.00    +0.015 C 
ATOM     17  C   UNL     1      -0.495   3.200 -23.166  0.00  0.00    +0.064 A 
ENDROOT
BRANCH   1  19
ATOM     18  C   UNL     1       0.062   1.188 -21.164  0.00  0.00    +0.277 C 
ATOM     19  O   UNL     1      -0.552   2.331 -21.090  0.00  0.00    -0.494 OA
ENDBRANCH   1  19
BRANCH   9  20
ATOM     20  O   UNL     1      -3.033   4.225 -25.249  0.00  0.00    -0.488 OA
ATOM     21  C   UNL     1      -3.536   3.413 -26.131  0.00  0.00    +0.277 C 
ENDBRANCH   9  20
TORSDOF 2
ENDMDL
MODEL 5
REMARK VINA RESULT:    -8.565      1.514      4.876
REMARK INTER + INTRA:          -8.713
REMARK INTER:                  -9.732
REMARK INTRA:                   1.019
REMARK UNBOUND:                 0.853
REMARK  Name = ZINC000005762051
REMARK  6 active torsions:
REMARK  status: ('A' for Active; 'I' for Inactive)
REMARK    1  A    between atoms: C_1  and  O_2
REMARK    2  A    between atoms: O_2  and  C_3
REMARK    3  A    between atoms: C_6  and  O_7
REMARK    4  A    between atoms: O_7  and  C_8
REMARK    5  A    between atoms: C_17  and  C_18
REMARK    6  A    between atoms: C_17  and  C_19
REMARK                            x       y       z     vdW  Elec       q    Type
REMARK                         _______ _______ _______ _____ _____    ______ ____
ROOT
ATOM      1  C   UNL     1      -2.124   3.708 -25.095  0.00  0.00    +0.142 A 
ATOM      2  C   UNL     1      -0.907   3.429 -24.732  0.00  0.00    +0.063 A 
ATOM      3  C   UNL     1      -0.664   3.040 -23.516  0.00  0.00    +0.177 A 
ATOM      4  O   UNL     1       0.553   2.762 -23.153  0.00  0.00    -0.478 OA
ATOM      5  C   UNL     1       1.527   2.872 -24.007  0.00  0.00    +0.124 C 
ATOM      6  C   UNL     1       1.284   3.261 -25.223  0.00  0.00    +0.020 C 
ATOM      7  C   UNL     1       2.188   2.473 -22.961  0.00  0.00    +0.060 C 
ATOM      8  C   UNL     1       2.730   2.844 -24.497  0.00  0.00    +0.060 C 
ATOM      9  C   UNL     1      -1.638   2.930 -22.662  0.00  0.00    +0.206 A 
ATOM     10  C   UNL     1      -2.855   3.209 -23.024  0.00  0.00    +0.188 A 
ATOM     11  O   UNL     1      -3.830   3.099 -22.170  0.00  0.00    -0.418 OA
ATOM     12  C   UNL     1      -5.046   3.377 -22.533  0.00  0.00    +0.337 A 
ATOM     13  C   UNL     1      -5.289   3.766 -23.750  0.00  0.00    +0.093 A 
ATOM     14  C   UNL     1      -4.315   3.876 -24.604  0.00  0.00    +0.022 A 
ATOM     15  O   UNL     1      -6.020   3.267 -21.680  0.00  0.00    -0.245 OA
ATOM     16  C   UNL     1       0.068   3.539 -25.586  0.00  0.00    +0.015 C 
ATOM     17  C   UNL     1      -3.097   3.598 -24.241  0.00  0.00    +0.064 A 
ENDROOT
BRANCH   1  19
ATOM     18  C   UNL     1      -3.089   3.357 -27.098  0.00  0.00    +0.277 C 
ATOM     19  O   UNL     1      -2.366   4.097 -26.311  0.00  0.00    -0.494 OA
ENDBRANCH   1  19
BRANCH   9  20
ATOM     20  O   UNL     1      -1.396   2.541 -21.445  0.00  0.00    -0.488 OA
ATOM     21  C   UNL     1      -1.013   1.320 -21.217  0.00  0.00    +0.277 C 
ENDBRANCH   9  20
TORSDOF 2
ENDMDL
MODEL 6
REMARK VINA RESULT:    -8.509      1.106      3.196
REMARK INTER + INTRA:          -8.651
REMARK INTER:                  -9.480
REMARK INTRA:                   0.829
REMARK UNBOUND:                 0.853
REMARK  Name = ZINC000005762051
REMARK  6 active torsions:
REMARK  status: ('A' for Active; 'I' for Inactive)
REMARK    1  A    between atoms: C_1  and  O_2
REMARK    2  A    between atoms: O_2  and  C_3
REMARK    3  A    between atoms: C_6  and  O_7
REMARK    4  A    between atoms: O_7  and  C_8
REMARK    5  A    between atoms: C_17  and  C_18
REMARK    6  A    between atoms: C_17  and  C_19
REMARK                            x       y       z     vdW  Elec       q    Type
REMARK                         _______ _______ _______ _____ _____    ______ ____
ROOT
ATOM      1  C   UNL     1      -1.831   2.496 -22.006  0.00  0.00    +0.142 A 
ATOM      2  C   UNL     1      -2.420   2.911 -23.088  0.00  0.00    +0.063 A 
ATOM      3  C   UNL     1      -1.737   3.056 -24.185  0.00  0.00    +0.177 A 
ATOM      4  O   UNL     1      -2.326   3.471 -25.267  0.00  0.00    -0.478 OA
ATOM      5  C   UNL     1      -3.597   3.742 -25.252  0.00  0.00    +0.124 C 
ATOM      6  C   UNL     1      -4.280   3.597 -24.156  0.00  0.00    +0.020 C 
ATOM      7  C   UNL     1      -3.323   4.013 -26.494  0.00  0.00    +0.060 C 
ATOM      8  C   UNL     1      -4.774   4.106 -25.669  0.00  0.00    +0.060 C 
ATOM      9  C   UNL     1      -0.465   2.786 -24.199  0.00  0.00    +0.206 A 
ATOM     10  C   UNL     1       0.123   2.371 -23.117  0.00  0.00    +0.188 A 
ATOM     11  O   UNL     1       1.395   2.100 -23.132  0.00  0.00    -0.418 OA
ATOM     12  C   UNL     1       1.984   1.685 -22.050  0.00  0.00    +0.337 A 
ATOM     13  C   UNL     1       1.301   1.541 -20.953  0.00  0.00    +0.093 A 
ATOM     14  C   UNL     1       0.029   1.811 -20.938  0.00  0.00    +0.022 A 
ATOM     15  O   UNL     1       3.254   1.415 -22.064  0.00  0.00    -0.245 OA
ATOM     16  C   UNL     1      -3.692   3.182 -23.074  0.00  0.00    +0.015 C 
ATOM     17  C   UNL     1      -0.560   2.226 -22.021  0.00  0.00    +0.064 A 
ENDROOT
BRANCH   1  19
ATOM     18  C   UNL     1      -2.943   3.397 -20.268  0.00  0.00    +0.277 C 
ATOM     19  O   UNL     1      -2.514   2.352 -20.909  0.00  0.00    -0.494 OA
ENDBRANCH   1  19
BRANCH   9  20
ATOM     20  O   UNL     1       0.217   2.930 -25.296  0.00  0.00    -0.488 OA
ATOM     21  C   UNL     1       0.925   4.004 -25.484  0.00  0.00    +0.277 C 
ENDBRANCH   9  20
TORSDOF 2
ENDMDL
MODEL 7
REMARK VINA RESULT:    -8.249      0.760      4.917
REMARK INTER + INTRA:          -8.360
REMARK INTER:                  -9.448
REMARK INTRA:                   1.088
REMARK UNBOUND:                 0.853
REMARK  Name = ZINC000005762051
REMARK  6 active torsions:
REMARK  status: ('A' for Active; 'I' for Inactive)
REMARK    1  A    between atoms: C_1  and  O_2
REMARK    2  A    between atoms: O_2  and  C_3
REMARK    3  A    between atoms: C_6  and  O_7
REMARK    4  A    between atoms: O_7  and  C_8
REMARK    5  A    between atoms: C_17  and  C_18
REMARK    6  A    between atoms: C_17  and  C_19
REMARK                            x       y       z     vdW  Elec       q    Type
REMARK                         _______ _______ _______ _____ _____    ______ ____
ROOT
ATOM      1  C   UNL     1      -0.671   3.100 -24.456  0.00  0.00    +0.142 A 
ATOM      2  C   UNL     1      -0.014   2.644 -23.432  0.00  0.00    +0.063 A 
ATOM      3  C   UNL     1      -0.634   2.414 -22.312  0.00  0.00    +0.177 A 
ATOM      4  O   UNL     1       0.024   1.957 -21.287  0.00  0.00    -0.478 OA
ATOM      5  C   UNL     1       1.300   1.731 -21.382  0.00  0.00    +0.124 C 
ATOM      6  C   UNL     1       1.920   1.962 -22.501  0.00  0.00    +0.020 C 
ATOM      7  C   UNL     1       1.100   1.380 -20.147  0.00  0.00    +0.060 C 
ATOM      8  C   UNL     1       2.508   1.384 -21.048  0.00  0.00    +0.060 C 
ATOM      9  C   UNL     1      -1.910   2.639 -22.218  0.00  0.00    +0.206 A 
ATOM     10  C   UNL     1      -2.567   3.095 -23.242  0.00  0.00    +0.188 A 
ATOM     11  O   UNL     1      -3.844   3.321 -23.148  0.00  0.00    -0.418 OA
ATOM     12  C   UNL     1      -4.501   3.778 -24.173  0.00  0.00    +0.337 A 
ATOM     13  C   UNL     1      -3.881   4.008 -25.292  0.00  0.00    +0.093 A 
ATOM     14  C   UNL     1      -2.605   3.782 -25.387  0.00  0.00    +0.022 A 
ATOM     15  O   UNL     1      -5.777   4.004 -24.079  0.00  0.00    -0.245 OA
ATOM     16  C   UNL     1       1.264   2.418 -23.526  0.00  0.00    +0.015 C 
ATOM     17  C   UNL     1      -1.947   3.326 -24.362  0.00  0.00    +0.064 A 
ENDROOT
BRANCH   1  19
ATOM     18  C   UNL     1       0.943   4.168 -25.608  0.00  0.00    +0.277 C 
ATOM     19  O   UNL     1      -0.051   3.331 -25.575  0.00  0.00    -0.494 OA
ENDBRANCH   1  19
BRANCH   9  20
ATOM     20  O   UNL     1      -2.530   2.409 -21.099  0.00  0.00    -0.488 OA
ATOM     21  C   UNL     1      -2.902   3.401 -20.345  0.00  0.00    +0.277 C 
ENDBRANCH   9  20
TORSDOF 2
ENDMDL
MODEL 8
REMARK VINA RESULT:    -7.650      1.384      5.115
REMARK INTER + INTRA:          -7.691
REMARK INTER:                  -8.858
REMARK INTRA:                   1.167
REMARK UNBOUND:                 0.853
REMARK  Name = ZINC000005762051
REMARK  6 active torsions:
REMARK  status: ('A' for Active; 'I' for Inactive)
REMARK    1  A    between atoms: C_1  and  O_2
REMARK    2  A    between atoms: O_2  and  C_3
REMARK    3  A    between atoms: C_6  and  O_7
REMARK    4  A    between atoms: O_7  and  C_8
REMARK    5  A    between atoms: C_17  and  C_18
REMARK    6  A    between atoms: C_17  and  C_19
REMARK                            x       y       z     vdW  Elec       q    Type
REMARK                         _______ _______ _______ _____ _____    ______ ____
ROOT
ATOM      1  C   UNL     1      -1.461   2.648 -21.849  0.00  0.00    +0.142 A 
ATOM      2  C   UNL     1      -0.675   2.979 -22.830  0.00  0.00    +0.063 A 
ATOM      3  C   UNL     1      -1.170   3.495 -23.915  0.00  0.00    +0.177 A 
ATOM      4  O   UNL     1      -0.383   3.826 -24.896  0.00  0.00    -0.478 OA
ATOM      5  C   UNL     1       0.899   3.640 -24.791  0.00  0.00    +0.124 C 
ATOM      6  C   UNL     1       1.395   3.123 -23.706  0.00  0.00    +0.020 C 
ATOM      7  C   UNL     1       0.843   4.154 -25.984  0.00  0.00    +0.060 C 
ATOM      8  C   UNL     1       2.162   3.632 -25.100  0.00  0.00    +0.060 C 
ATOM      9  C   UNL     1      -2.452   3.682 -24.020  0.00  0.00    +0.206 A 
ATOM     10  C   UNL     1      -3.239   3.351 -23.039  0.00  0.00    +0.188 A 
ATOM     11  O   UNL     1      -4.522   3.537 -23.144  0.00  0.00    -0.418 OA
ATOM     12  C   UNL     1      -5.308   3.207 -22.163  0.00  0.00    +0.337 A 
ATOM     13  C   UNL     1      -4.813   2.690 -21.078  0.00  0.00    +0.093 A 
ATOM     14  C   UNL     1      -3.531   2.504 -20.973  0.00  0.00    +0.022 A 
ATOM     15  O   UNL     1      -6.590   3.393 -22.267  0.00  0.00    -0.245 OA
ATOM     16  C   UNL     1       0.608   2.793 -22.725  0.00  0.00    +0.015 C 
ATOM     17  C   UNL     1      -2.743   2.835 -21.954  0.00  0.00    +0.064 A 
ENDROOT
BRANCH   1  19
ATOM     18  C   UNL     1      -0.150   1.123 -20.838  0.00  0.00    +0.277 C 
ATOM     19  O   UNL     1      -0.966   2.132 -20.764  0.00  0.00    -0.494 OA
ENDBRANCH   1  19
BRANCH   9  20
ATOM     20  O   UNL     1      -2.948   4.198 -25.105  0.00  0.00    -0.488 OA
ATOM     21  C   UNL     1      -3.282   3.428 -26.097  0.00  0.00    +0.277 C 
ENDBRANCH   9  20
TORSDOF 2
ENDMDL
MODEL 9
REMARK VINA RESULT:    -7.519      3.140      5.249
REMARK INTER + INTRA:          -7.545
REMARK INTER:                  -8.398
REMARK INTRA:                   0.853
REMARK UNBOUND:                 0.853
REMARK  Name = ZINC000005762051
REMARK  6 active torsions:
REMARK  status: ('A' for Active; 'I' for Inactive)
REMARK    1  A    between atoms: C_1  and  O_2
REMARK    2  A    between atoms: O_2  and  C_3
REMARK    3  A    between atoms: C_6  and  O_7
REMARK    4  A    between atoms: O_7  and  C_8
REMARK    5  A    between atoms: C_17  and  C_18
REMARK    6  A    between atoms: C_17  and  C_19
REMARK                            x       y       z     vdW  Elec       q    Type
REMARK                         _______ _______ _______ _____ _____    ______ ____
ROOT
ATOM      1  C   UNL     1       3.223   1.483 -22.188  0.00  0.00    +0.142 A 
ATOM      2  C   UNL     1       2.001   1.915 -22.280  0.00  0.00    +0.063 A 
ATOM      3  C   UNL     1       1.764   3.093 -22.776  0.00  0.00    +0.177 A 
ATOM      4  O   UNL     1       0.541   3.525 -22.867  0.00  0.00    -0.478 OA
ATOM      5  C   UNL     1      -0.444   2.779 -22.464  0.00  0.00    +0.124 C 
ATOM      6  C   UNL     1      -0.207   1.601 -21.968  0.00  0.00    +0.020 C 
ATOM      7  C   UNL     1      -1.104   3.824 -22.868  0.00  0.00    +0.060 C 
ATOM      8  C   UNL     1      -1.658   2.396 -22.201  0.00  0.00    +0.060 C 
ATOM      9  C   UNL     1       2.749   3.839 -23.179  0.00  0.00    +0.206 A 
ATOM     10  C   UNL     1       3.971   3.407 -23.087  0.00  0.00    +0.188 A 
ATOM     11  O   UNL     1       4.957   4.154 -23.491  0.00  0.00    -0.418 OA
ATOM     12  C   UNL     1       6.179   3.722 -23.399  0.00  0.00    +0.337 A 
ATOM     13  C   UNL     1       6.416   2.543 -22.903  0.00  0.00    +0.093 A 
ATOM     14  C   UNL     1       5.432   1.797 -22.500  0.00  0.00    +0.022 A 
ATOM     15  O   UNL     1       7.164   4.467 -23.802  0.00  0.00    -0.245 OA
ATOM     16  C   UNL     1       1.015   1.169 -21.876  0.00  0.00    +0.015 C 
ATOM     17  C   UNL     1       4.208   2.229 -22.592  0.00  0.00    +0.064 A 
ENDROOT
BRANCH   1  19
ATOM     18  C   UNL     1       4.024   0.192 -20.526  0.00  0.00    +0.277 C 
ATOM     19  O   UNL     1       3.461   0.305 -21.692  0.00  0.00    -0.494 OA
ENDBRANCH   1  19
BRANCH   9  20
ATOM     20  O   UNL     1       2.511   5.018 -23.675  0.00  0.00    -0.488 OA
ATOM     21  C   UNL     1       2.689   6.078 -22.944  0.00  0.00    +0.277 C 
ENDBRANCH   9  20
TORSDOF 2
ENDMDL
