MODEL 1
REMARK VINA RESULT:   -10.717      0.000      0.000
REMARK INTER + INTRA:         -12.106
REMARK INTER:                 -11.964
REMARK INTRA:                  -0.141
REMARK UNBOUND:                -0.136
REMARK  Name = ZINC000002040405
REMARK  4 active torsions:
REMARK  status: ('A' for Active; 'I' for Inactive)
REMARK    1  A    between atoms: C_1  and  O_2
REMARK    2  A    between atoms: O_2  and  C_3
REMARK    3  A    between atoms: C_15  and  O_16
REMARK    4  A    between atoms: N_19  and  C_20
REMARK                            x       y       z     vdW  Elec       q    Type
REMARK                         _______ _______ _______ _____ _____    ______ ____
ROOT
ATOM      1  C   UNL     1       0.528   2.567 -23.221  0.00  0.00    +0.162 A 
ATOM      2  C   UNL     1       0.504   2.015 -22.082  0.00  0.00    +0.050 A 
ATOM      3  C   UNL     1      -0.573   1.900 -21.456  0.00  0.00    +0.008 A 
ATOM      4  C   UNL     1      -1.635   2.333 -21.956  0.00  0.00    -0.034 A 
ATOM      5  C   UNL     1      -1.634   2.887 -23.090  0.00  0.00    +0.015 A 
ATOM      6  C   UNL     1      -2.696   3.319 -23.588  0.00  0.00    +0.086 C 
ATOM      7  C   UNL     1      -3.842   3.848 -24.253  0.00  0.00    +0.070 C 
ATOM      8  C   UNL     1      -5.070   3.732 -23.570  0.00  0.00    +0.132 C 
ATOM      9  N   UNL     1      -5.060   3.112 -22.306  0.00  0.00    +0.238 N 
ATOM     10  H   UNL     1      -5.929   3.010 -21.781  0.00  0.00    +0.203 HD
ATOM     11  C   UNL     1      -6.107   2.971 -21.636  0.00  0.00    +0.191 C 
ATOM     12  C   UNL     1      -3.800   2.653 -21.823  0.00  0.00    +0.106 C 
ATOM     13  C   UNL     1      -3.769   3.203 -22.961  0.00  0.00    +0.141 C 
ATOM     14  C   UNL     1      -4.849   3.638 -23.458  0.00  0.00    +0.017 C 
ATOM     15  C   UNL     1      -4.839   4.187 -24.585  0.00  0.00    +0.049 C 
ATOM     16  C   UNL     1      -3.756   4.309 -25.229  0.00  0.00    +0.197 C 
ATOM     17  O   UNL     1      -3.749   4.858 -26.354  0.00  0.00    -0.289 OA
ATOM     18  C   UNL     1      -2.689   3.876 -24.731  0.00  0.00    +0.257 C 
ATOM     19  O   UNL     1      -1.197   3.691 -24.893  0.00  0.00    -0.476 OA
ATOM     20  C   UNL     1      -2.738   2.220 -21.325  0.00  0.00    +0.093 C 
ATOM     21  C   UNL     1      -0.549   3.005 -23.726  0.00  0.00    +0.167 A 
ENDROOT
BRANCH   1  23
ATOM     22  C   UNL     1       2.439   3.552 -23.506  0.00  0.00    +0.277 C 
ATOM     23  O   UNL     1       1.607   2.680 -23.844  0.00  0.00    -0.491 OA
ENDBRANCH   1  23
BRANCH  13  24
ATOM     24  O   UNL     1      -2.709   2.768 -22.456  0.00  0.00    -0.378 OA
ATOM     25  H   UNL     1      -2.408   3.377 -21.763  0.00  0.00    +0.211 HD
ENDBRANCH  13  24
TORSDOF 2
ENDMDL
MODEL 2
REMARK VINA RESULT:   -10.387      1.849      5.433
REMARK INTER + INTRA:         -11.737
REMARK INTER:                 -11.603
REMARK INTRA:                  -0.134
REMARK UNBOUND:                -0.136
REMARK  Name = ZINC000002040405
REMARK  4 active torsions:
REMARK  status: ('A' for Active; 'I' for Inactive)
REMARK    1  A    between atoms: C_1  and  O_2
REMARK    2  A    between atoms: O_2  and  C_3
REMARK    3  A    between atoms: C_15  and  O_16
REMARK    4  A    between atoms: N_19  and  C_20
REMARK                            x       y       z     vdW  Elec       q    Type
REMARK                         _______ _______ _______ _____ _____    ______ ____
ROOT
ATOM      1  C   UNL     1      -4.533   3.421 -22.483  0.00  0.00    +0.162 A 
ATOM      2  C   UNL     1      -4.804   3.876 -23.632  0.00  0.00    +0.050 A 
ATOM      3  C   UNL     1      -3.920   3.935 -24.515  0.00  0.00    +0.008 A 
ATOM      4  C   UNL     1      -2.760   3.541 -24.264  0.00  0.00    -0.034 A 
ATOM      5  C   UNL     1      -2.468   3.083 -23.124  0.00  0.00    +0.015 A 
ATOM      6  C   UNL     1      -1.308   2.690 -22.876  0.00  0.00    +0.086 C 
ATOM      7  C   UNL     1      -0.024   2.214 -22.477  0.00  0.00    +0.070 C 
ATOM      8  C   UNL     1       0.993   2.268 -23.453  0.00  0.00    +0.132 C 
ATOM      9  N   UNL     1       0.657   2.781 -24.721  0.00  0.00    +0.238 N 
ATOM     10  H   UNL     1       1.365   2.836 -25.453  0.00  0.00    +0.203 HD
ATOM     11  C   UNL     1       1.501   2.862 -25.641  0.00  0.00    +0.191 C 
ATOM     12  C   UNL     1      -0.692   3.204 -24.908  0.00  0.00    +0.106 C 
ATOM     13  C   UNL     1      -0.428   2.750 -23.759  0.00  0.00    +0.141 C 
ATOM     14  C   UNL     1       0.750   2.354 -23.514  0.00  0.00    +0.017 C 
ATOM     15  C   UNL     1       1.031   1.900 -22.380  0.00  0.00    +0.049 C 
ATOM     16  C   UNL     1       0.146   1.835 -21.477  0.00  0.00    +0.197 C 
ATOM     17  O   UNL     1       0.430   1.382 -20.346  0.00  0.00    -0.289 OA
ATOM     18  C   UNL     1      -1.020   2.229 -21.725  0.00  0.00    +0.257 C 
ATOM     19  O   UNL     1      -2.427   2.434 -21.211  0.00  0.00    -0.476 OA
ATOM     20  C   UNL     1      -1.852   3.597 -25.158  0.00  0.00    +0.093 C 
ATOM     21  C   UNL     1      -3.357   3.022 -22.230  0.00  0.00    +0.167 A 
ENDROOT
BRANCH   1  23
ATOM     22  C   UNL     1      -6.405   2.605 -21.751  0.00  0.00    +0.277 C 
ATOM     23  O   UNL     1      -5.420   3.364 -21.602  0.00  0.00    -0.491 OA
ENDBRANCH   1  23
BRANCH  13  24
ATOM     24  O   UNL     1      -1.587   3.145 -24.015  0.00  0.00    -0.378 OA
ATOM     25  H   UNL     1      -1.788   3.927 -23.477  0.00  0.00    +0.211 HD
ENDBRANCH  13  24
TORSDOF 2
ENDMDL
MODEL 3
REMARK VINA RESULT:   -10.049      1.311      2.970
REMARK INTER + INTRA:         -11.360
REMARK INTER:                 -11.227
REMARK INTRA:                  -0.133
REMARK UNBOUND:                -0.136
REMARK  Name = ZINC000002040405
REMARK  4 active torsions:
REMARK  status: ('A' for Active; 'I' for Inactive)
REMARK    1  A    between atoms: C_1  and  O_2
REMARK    2  A    between atoms: O_2  and  C_3
REMARK    3  A    between atoms: C_15  and  O_16
REMARK    4  A    between atoms: N_19  and  C_20
REMARK                            x       y       z     vdW  Elec       q    Type
REMARK                         _______ _______ _______ _____ _____    ______ ____
ROOT
ATOM      1  C   UNL     1       0.968   2.303 -22.692  0.00  0.00    +0.162 A 
ATOM      2  C   UNL     1       1.234   2.642 -23.882  0.00  0.00    +0.050 A 
ATOM      3  C   UNL     1       0.334   3.078 -24.633  0.00  0.00    +0.008 A 
ATOM      4  C   UNL     1      -0.838   3.182 -24.208  0.00  0.00    -0.034 A 
ATOM      5  C   UNL     1      -1.126   2.850 -23.024  0.00  0.00    +0.015 A 
ATOM      6  C   UNL     1      -2.297   2.955 -22.602  0.00  0.00    +0.086 C 
ATOM      7  C   UNL     1      -3.593   3.029 -22.011  0.00  0.00    +0.070 C 
ATOM      8  C   UNL     1      -4.628   3.518 -22.835  0.00  0.00    +0.132 C 
ATOM      9  N   UNL     1      -4.297   3.885 -24.153  0.00  0.00    +0.238 N 
ATOM     10  H   UNL     1      -5.018   4.243 -24.781  0.00  0.00    +0.203 HD
ATOM     11  C   UNL     1      -5.157   4.327 -24.948  0.00  0.00    +0.191 C 
ATOM     12  C   UNL     1      -2.934   3.730 -24.543  0.00  0.00    +0.106 C 
ATOM     13  C   UNL     1      -3.193   3.390 -23.353  0.00  0.00    +0.141 C 
ATOM     14  C   UNL     1      -4.382   3.499 -22.933  0.00  0.00    +0.017 C 
ATOM     15  C   UNL     1      -4.659   3.167 -21.756  0.00  0.00    +0.049 C 
ATOM     16  C   UNL     1      -3.758   2.724 -20.985  0.00  0.00    +0.197 C 
ATOM     17  O   UNL     1      -4.037   2.394 -19.811  0.00  0.00    -0.289 OA
ATOM     18  C   UNL     1      -2.581   2.619 -21.408  0.00  0.00    +0.257 C 
ATOM     19  O   UNL     1      -1.154   2.220 -21.104  0.00  0.00    -0.476 OA
ATOM     20  C   UNL     1      -1.762   3.626 -24.967  0.00  0.00    +0.093 C 
ATOM     21  C   UNL     1      -0.220   2.409 -22.262  0.00  0.00    +0.167 A 
ENDROOT
BRANCH   1  23
ATOM     22  C   UNL     1       2.442   0.786 -22.212  0.00  0.00    +0.277 C 
ATOM     23  O   UNL     1       1.871   1.867 -21.943  0.00  0.00    -0.491 OA
ENDBRANCH   1  23
BRANCH  13  24
ATOM     24  O   UNL     1      -2.022   3.288 -23.783  0.00  0.00    -0.378 OA
ATOM     25  H   UNL     1      -1.706   4.160 -24.067  0.00  0.00    +0.211 HD
ENDBRANCH  13  24
TORSDOF 2
ENDMDL
MODEL 4
REMARK VINA RESULT:    -9.719      2.581      6.442
REMARK INTER + INTRA:         -10.992
REMARK INTER:                 -10.865
REMARK INTRA:                  -0.127
REMARK UNBOUND:                -0.136
REMARK  Name = ZINC000002040405
REMARK  4 active torsions:
REMARK  status: ('A' for Active; 'I' for Inactive)
REMARK    1  A    between atoms: C_1  and  O_2
REMARK    2  A    between atoms: O_2  and  C_3
REMARK    3  A    between atoms: C_15  and  O_16
REMARK    4  A    between atoms: N_19  and  C_20
REMARK                            x       y       z     vdW  Elec       q    Type
REMARK                         _______ _______ _______ _____ _____    ______ ____
ROOT
ATOM      1  C   UNL     1      -1.719   3.292 -23.301  0.00  0.00    +0.162 A 
ATOM      2  C   UNL     1      -1.756   4.527 -23.577  0.00  0.00    +0.050 A 
ATOM      3  C   UNL     1      -0.702   5.200 -23.613  0.00  0.00    +0.008 A 
ATOM      4  C   UNL     1       0.397   4.652 -23.376  0.00  0.00    -0.034 A 
ATOM      5  C   UNL     1       0.457   3.422 -23.099  0.00  0.00    +0.015 A 
ATOM      6  C   UNL     1       1.557   2.876 -22.863  0.00  0.00    +0.086 C 
ATOM      7  C   UNL     1       2.749   2.148 -22.576  0.00  0.00    +0.070 C 
ATOM      8  C   UNL     1       3.953   2.882 -22.610  0.00  0.00    +0.132 C 
ATOM      9  N   UNL     1       3.875   4.253 -22.920  0.00  0.00    +0.238 N 
ATOM     10  H   UNL     1       4.724   4.818 -22.954  0.00  0.00    +0.203 HD
ATOM     11  C   UNL     1       4.897   4.973 -22.970  0.00  0.00    +0.191 C 
ATOM     12  C   UNL     1       2.576   4.784 -23.174  0.00  0.00    +0.106 C 
ATOM     13  C   UNL     1       2.606   3.550 -22.900  0.00  0.00    +0.141 C 
ATOM     14  C   UNL     1       3.724   3.005 -22.661  0.00  0.00    +0.017 C 
ATOM     15  C   UNL     1       3.774   1.782 -22.387  0.00  0.00    +0.049 C 
ATOM     16  C   UNL     1       2.715   1.090 -22.347  0.00  0.00    +0.197 C 
ATOM     17  O   UNL     1       2.769  -0.130 -22.073  0.00  0.00    -0.289 OA
ATOM     18  C   UNL     1       1.610   1.636 -22.584  0.00  0.00    +0.257 C 
ATOM     19  O   UNL     1       0.112   1.469 -22.706  0.00  0.00    -0.476 OA
ATOM     20  C   UNL     1       1.477   5.330 -23.411  0.00  0.00    +0.093 C 
ATOM     21  C   UNL     1      -0.604   2.738 -23.061  0.00  0.00    +0.167 A 
ENDROOT
BRANCH   1  23
ATOM     22  C   UNL     1      -3.725   2.985 -22.535  0.00  0.00    +0.277 C 
ATOM     23  O   UNL     1      -2.775   2.622 -23.266  0.00  0.00    -0.491 OA
ENDBRANCH   1  23
BRANCH  13  24
ATOM     24  O   UNL     1       1.509   4.103 -23.137  0.00  0.00    -0.378 OA
ATOM     25  H   UNL     1       1.349   4.799 -22.481  0.00  0.00    +0.211 HD
ENDBRANCH  13  24
TORSDOF 2
ENDMDL
MODEL 5
REMARK VINA RESULT:    -8.739      2.340      3.863
REMARK INTER + INTRA:          -9.897
REMARK INTER:                  -9.746
REMARK INTRA:                  -0.151
REMARK UNBOUND:                -0.136
REMARK  Name = ZINC000002040405
REMARK  4 active torsions:
REMARK  status: ('A' for Active; 'I' for Inactive)
REMARK    1  A    between atoms: C_1  and  O_2
REMARK    2  A    between atoms: O_2  and  C_3
REMARK    3  A    between atoms: C_15  and  O_16
REMARK    4  A    between atoms: N_19  and  C_20
REMARK                            x       y       z     vdW  Elec       q    Type
REMARK                         _______ _______ _______ _____ _____    ______ ____
ROOT
ATOM      1  C   UNL     1       3.937   1.721 -21.908  0.00  0.00    +0.162 A 
ATOM      2  C   UNL     1       3.470   1.174 -20.867  0.00  0.00    +0.050 A 
ATOM      3  C   UNL     1       2.235   1.142 -20.668  0.00  0.00    +0.008 A 
ATOM      4  C   UNL     1       1.455   1.652 -21.502  0.00  0.00    -0.034 A 
ATOM      5  C   UNL     1       1.900   2.202 -22.548  0.00  0.00    +0.015 A 
ATOM      6  C   UNL     1       1.119   2.712 -23.380  0.00  0.00    +0.086 C 
ATOM      7  C   UNL     1       0.327   3.324 -24.396  0.00  0.00    +0.070 C 
ATOM      8  C   UNL     1      -1.069   3.302 -24.199  0.00  0.00    +0.132 C 
ATOM      9  N   UNL     1      -1.555   2.686 -23.030  0.00  0.00    +0.238 N 
ATOM     10  H   UNL     1      -2.559   2.650 -22.851  0.00  0.00    +0.203 HD
ATOM     11  C   UNL     1      -2.780   2.625 -22.781  0.00  0.00    +0.191 C 
ATOM     12  C   UNL     1      -0.586   2.134 -22.141  0.00  0.00    +0.106 C 
ATOM     13  C   UNL     1      -0.113   2.678 -23.179  0.00  0.00    +0.141 C 
ATOM     14  C   UNL     1      -0.910   3.192 -24.017  0.00  0.00    +0.017 C 
ATOM     15  C   UNL     1      -0.460   3.736 -25.053  0.00  0.00    +0.049 C 
ATOM     16  C   UNL     1       0.788   3.776 -25.266  0.00  0.00    +0.197 C 
ATOM     17  O   UNL     1       1.235   4.320 -26.300  0.00  0.00    -0.289 OA
ATOM     18  C   UNL     1       1.574   3.265 -24.431  0.00  0.00    +0.257 C 
ATOM     19  O   UNL     1       3.008   2.967 -24.055  0.00  0.00    -0.476 OA
ATOM     20  C   UNL     1       0.194   1.624 -21.308  0.00  0.00    +0.093 C 
ATOM     21  C   UNL     1       3.146   2.238 -22.752  0.00  0.00    +0.167 A 
ENDROOT
BRANCH   1  23
ATOM     22  C   UNL     1       5.824   2.789 -21.844  0.00  0.00    +0.277 C 
ATOM     23  O   UNL     1       5.173   1.751 -22.103  0.00  0.00    -0.491 OA
ENDBRANCH   1  23
BRANCH  13  24
ATOM     24  O   UNL     1       0.664   2.166 -22.342  0.00  0.00    -0.378 OA
ATOM     25  H   UNL     1       0.970   2.849 -21.725  0.00  0.00    +0.211 HD
ENDBRANCH  13  24
TORSDOF 2
ENDMDL
MODEL 6
REMARK VINA RESULT:    -8.450      3.018      5.017
REMARK INTER + INTRA:          -9.574
REMARK INTER:                  -9.438
REMARK INTRA:                  -0.136
REMARK UNBOUND:                -0.136
REMARK  Name = ZINC000002040405
REMARK  4 active torsions:
REMARK  status: ('A' for Active; 'I' for Inactive)
REMARK    1  A    between atoms: C_1  and  O_2
REMARK    2  A    between atoms: O_2  and  C_3
REMARK    3  A    between atoms: C_15  and  O_16
REMARK    4  A    between atoms: N_19  and  C_20
REMARK                            x       y       z     vdW  Elec       q    Type
REMARK                         _______ _______ _______ _____ _____    ______ ____
ROOT
ATOM      1  C   UNL     1       4.289   1.947 -21.711  0.00  0.00    +0.162 A 
ATOM      2  C   UNL     1       4.878   2.521 -22.673  0.00  0.00    +0.050 A 
ATOM      3  C   UNL     1       4.223   2.979 -23.635  0.00  0.00    +0.008 A 
ATOM      4  C   UNL     1       2.977   2.870 -23.649  0.00  0.00    -0.034 A 
ATOM      5  C   UNL     1       2.369   2.301 -22.701  0.00  0.00    +0.015 A 
ATOM      6  C   UNL     1       1.124   2.193 -22.717  0.00  0.00    +0.086 C 
ATOM      7  C   UNL     1      -0.288   2.012 -22.627  0.00  0.00    +0.070 C 
ATOM      8  C   UNL     1      -1.053   2.519 -23.698  0.00  0.00    +0.132 C 
ATOM      9  N   UNL     1      -0.365   3.151 -24.751  0.00  0.00    +0.238 N 
ATOM     10  H   UNL     1      -0.883   3.530 -25.544  0.00  0.00    +0.203 HD
ATOM     11  C   UNL     1      -0.970   3.627 -25.738  0.00  0.00    +0.191 C 
ATOM     12  C   UNL     1       1.054   3.225 -24.642  0.00  0.00    +0.106 C 
ATOM     13  C   UNL     1       0.472   2.651 -23.678  0.00  0.00    +0.141 C 
ATOM     14  C   UNL     1      -0.789   2.545 -23.702  0.00  0.00    +0.017 C 
ATOM     15  C   UNL     1      -1.385   1.979 -22.755  0.00  0.00    +0.049 C 
ATOM     16  C   UNL     1      -0.734   1.511 -21.775  0.00  0.00    +0.197 C 
ATOM     17  O   UNL     1      -1.331   0.947 -20.832  0.00  0.00    -0.289 OA
ATOM     18  C   UNL     1       0.517   1.619 -21.758  0.00  0.00    +0.257 C 
ATOM     19  O   UNL     1       1.804   1.339 -21.015  0.00  0.00    -0.476 OA
ATOM     20  C   UNL     1       2.300   3.333 -24.627  0.00  0.00    +0.093 C 
ATOM     21  C   UNL     1       3.026   1.837 -21.727  0.00  0.00    +0.167 A 
ENDROOT
BRANCH   1  23
ATOM     22  C   UNL     1       5.088   0.254 -20.616  0.00  0.00    +0.277 C 
ATOM     23  O   UNL     1       4.948   1.491 -20.751  0.00  0.00    -0.491 OA
ENDBRANCH   1  23
BRANCH  13  24
ATOM     24  O   UNL     1       1.719   2.762 -23.668  0.00  0.00    -0.378 OA
ATOM     25  H   UNL     1       2.122   1.880 -23.674  0.00  0.00    +0.211 HD
ENDBRANCH  13  24
TORSDOF 2
ENDMDL
MODEL 7
REMARK VINA RESULT:    -8.100      3.116      6.916
REMARK INTER + INTRA:          -9.184
REMARK INTER:                  -9.072
REMARK INTRA:                  -0.112
REMARK UNBOUND:                -0.136
REMARK  Name = ZINC000002040405
REMARK  4 active torsions:
REMARK  status: ('A' for Active; 'I' for Inactive)
REMARK    1  A    between atoms: C_1  and  O_2
REMARK    2  A    between atoms: O_2  and  C_3
REMARK    3  A    between atoms: C_15  and  O_16
REMARK    4  A    between atoms: N_19  and  C_20
REMARK                            x       y       z     vdW  Elec       q    Type
REMARK                         _______ _______ _______ _____ _____    ______ ____
ROOT
ATOM      1  C   UNL     1      -0.142   3.680 -23.444  0.00  0.00    +0.162 A 
ATOM      2  C   UNL     1      -0.747   2.689 -22.941  0.00  0.00    +0.050 A 
ATOM      3  C   UNL     1      -0.111   1.799 -22.333  0.00  0.00    +0.008 A 
ATOM      4  C   UNL     1       1.131   1.887 -22.220  0.00  0.00    -0.034 A 
ATOM      5  C   UNL     1       1.755   2.867 -22.715  0.00  0.00    +0.015 A 
ATOM      6  C   UNL     1       2.997   2.952 -22.601  0.00  0.00    +0.086 C 
ATOM      7  C   UNL     1       4.407   3.156 -22.534  0.00  0.00    +0.070 C 
ATOM      8  C   UNL     1       5.150   2.169 -21.855  0.00  0.00    +0.132 C 
ATOM      9  N   UNL     1       4.445   1.080 -21.308  0.00  0.00    +0.238 N 
ATOM     10  H   UNL     1       4.946   0.346 -20.809  0.00  0.00    +0.203 HD
ATOM     11  C   UNL     1       5.030   0.163 -20.690  0.00  0.00    +0.191 C 
ATOM     12  C   UNL     1       3.030   1.072 -21.489  0.00  0.00    +0.106 C 
ATOM     13  C   UNL     1       3.629   2.064 -21.994  0.00  0.00    +0.141 C 
ATOM     14  C   UNL     1       4.887   2.143 -21.875  0.00  0.00    +0.017 C 
ATOM     15  C   UNL     1       5.499   3.120 -22.369  0.00  0.00    +0.049 C 
ATOM     16  C   UNL     1       4.867   4.027 -22.986  0.00  0.00    +0.197 C 
ATOM     17  O   UNL     1       5.480   5.000 -23.478  0.00  0.00    -0.289 OA
ATOM     18  C   UNL     1       3.620   3.942 -23.101  0.00  0.00    +0.257 C 
ATOM     19  O   UNL     1       2.350   4.565 -23.635  0.00  0.00    -0.476 OA
ATOM     20  C   UNL     1       1.788   0.985 -21.602  0.00  0.00    +0.093 C 
ATOM     21  C   UNL     1       1.118   3.768 -23.329  0.00  0.00    +0.167 A 
ENDROOT
BRANCH   1  23
ATOM     22  C   UNL     1      -2.032   4.525 -24.090  0.00  0.00    +0.277 C 
ATOM     23  O   UNL     1      -0.781   4.568 -24.051  0.00  0.00    -0.491 OA
ENDBRANCH   1  23
BRANCH  13  24
ATOM     24  O   UNL     1       2.386   1.971 -22.104  0.00  0.00    -0.378 OA
ATOM     25  H   UNL     1       1.974   2.801 -21.816  0.00  0.00    +0.211 HD
ENDBRANCH  13  24
TORSDOF 2
ENDMDL
MODEL 8
REMARK VINA RESULT:    -7.844      3.800      5.494
REMARK INTER + INTRA:          -8.897
REMARK INTER:                  -8.900
REMARK INTRA:                   0.003
REMARK UNBOUND:                -0.136
REMARK  Name = ZINC000002040405
REMARK  4 active torsions:
REMARK  status: ('A' for Active; 'I' for Inactive)
REMARK    1  A    between atoms: C_1  and  O_2
REMARK    2  A    between atoms: O_2  and  C_3
REMARK    3  A    between atoms: C_15  and  O_16
REMARK    4  A    between atoms: N_19  and  C_20
REMARK                            x       y       z     vdW  Elec       q    Type
REMARK                         _______ _______ _______ _____ _____    ______ ____
ROOT
ATOM      1  C   UNL     1       5.944   2.504 -22.544  0.00  0.00    +0.162 A 
ATOM      2  C   UNL     1       5.984   1.359 -22.006  0.00  0.00    +0.050 A 
ATOM      3  C   UNL     1       4.927   0.757 -21.718  0.00  0.00    +0.008 A 
ATOM      4  C   UNL     1       3.821   1.288 -21.961  0.00  0.00    -0.034 A 
ATOM      5  C   UNL     1       3.757   2.429 -22.497  0.00  0.00    +0.015 A 
ATOM      6  C   UNL     1       2.650   2.957 -22.739  0.00  0.00    +0.086 C 
ATOM      7  C   UNL     1       1.450   3.656 -23.061  0.00  0.00    +0.070 C 
ATOM      8  C   UNL     1       0.241   3.001 -22.746  0.00  0.00    +0.132 C 
ATOM      9  N   UNL     1       0.323   1.729 -22.149  0.00  0.00    +0.238 N 
ATOM     10  H   UNL     1      -0.529   1.223 -21.906  0.00  0.00    +0.203 HD
ATOM     11  C   UNL     1      -0.702   1.082 -21.839  0.00  0.00    +0.191 C 
ATOM     12  C   UNL     1       1.630   1.211 -21.912  0.00  0.00    +0.106 C 
ATOM     13  C   UNL     1       1.597   2.354 -22.450  0.00  0.00    +0.141 C 
ATOM     14  C   UNL     1       0.472   2.882 -22.692  0.00  0.00    +0.017 C 
ATOM     15  C   UNL     1       0.418   4.016 -23.224  0.00  0.00    +0.049 C 
ATOM     16  C   UNL     1       1.481   4.636 -23.522  0.00  0.00    +0.197 C 
ATOM     17  O   UNL     1       1.424   5.767 -24.053  0.00  0.00    -0.289 OA
ATOM     18  C   UNL     1       2.593   4.107 -23.279  0.00  0.00    +0.257 C 
ATOM     19  O   UNL     1       4.099   4.231 -23.346  0.00  0.00    -0.476 OA
ATOM     20  C   UNL     1       2.736   0.681 -21.670  0.00  0.00    +0.093 C 
ATOM     21  C   UNL     1       4.822   3.041 -22.790  0.00  0.00    +0.167 A 
ENDROOT
BRANCH   1  23
ATOM     22  C   UNL     1       7.165   3.581 -23.978  0.00  0.00    +0.277 C 
ATOM     23  O   UNL     1       7.004   3.103 -22.832  0.00  0.00    -0.491 OA
ENDBRANCH   1  23
BRANCH  13  24
ATOM     24  O   UNL     1       2.701   1.819 -22.204  0.00  0.00    -0.378 OA
ATOM     25  H   UNL     1       3.414   2.452 -22.386  0.00  0.00    +0.211 HD
ENDBRANCH  13  24
TORSDOF 2
ENDMDL
