MODEL 1
REMARK VINA RESULT:   -10.614      0.000      0.000
REMARK INTER + INTRA:          -7.407
REMARK INTER:                 -11.509
REMARK INTRA:                   4.102
REMARK UNBOUND:                 5.068
REMARK  Name = COc1ccc2c3c1O[C@H]1C(OC)(OC)CC[C@@H]4[C@@H](C2)N(C)CC[C@@]341        ZINC000253505296
REMARK  7 active torsions:
REMARK  status: ('A' for Active; 'I' for Inactive)
REMARK    1  A    between atoms: C_1  and  O_2
REMARK    2  A    between atoms: O_2  and  C_3
REMARK    3  A    between atoms: C_11  and  O_12
REMARK    4  A    between atoms: C_11  and  O_14
REMARK    5  A    between atoms: O_12  and  C_13
REMARK    6  A    between atoms: O_14  and  C_15
REMARK    7  A    between atoms: N_21  and  C_22
REMARK                            x       y       z     vdW  Elec       q    Type
REMARK                         _______ _______ _______ _____ _____    ______ ____
ROOT
ATOM      1  C   UNL     1       1.413   1.859 -22.047  0.00  0.00    +0.162 A 
ATOM      2  C   UNL     1       2.076   1.950 -23.124  0.00  0.00    +0.050 A 
ATOM      3  C   UNL     1       1.530   2.360 -24.175  0.00  0.00    +0.008 A 
ATOM      4  C   UNL     1       0.316   2.684 -24.160  0.00  0.00    -0.035 A 
ATOM      5  C   UNL     1      -0.365   2.602 -23.100  0.00  0.00    +0.012 A 
ATOM      6  C   UNL     1      -1.574   2.926 -23.092  0.00  0.00    +0.054 C 
ATOM      7  C   UNL     1      -2.957   3.265 -22.958  0.00  0.00    +0.067 C 
ATOM      8  C   UNL     1      -3.602   3.731 -24.127  0.00  0.00    +0.132 C 
ATOM      9  N   UNL     1      -2.832   3.819 -25.310  0.00  0.00    +0.236 N 
ATOM     10  H   UNL     1      -3.247   4.149 -26.181  0.00  0.00    +0.203 HD
ATOM     11  C   UNL     1      -3.327   4.223 -26.389  0.00  0.00    +0.190 C 
ATOM     12  C   UNL     1      -1.460   3.427 -25.217  0.00  0.00    +0.072 C 
ATOM     13  C   UNL     1      -2.125   3.337 -24.141  0.00  0.00    +0.053 C 
ATOM     14  C   UNL     1      -3.351   3.664 -24.131  0.00  0.00    +0.015 C 
ATOM     15  C   UNL     1      -4.013   3.576 -23.068  0.00  0.00    +0.069 C 
ATOM     16  C   UNL     1      -3.466   3.162 -22.002  0.00  0.00    +0.208 C 
ATOM     17  C   UNL     1      -2.253   2.839 -22.015  0.00  0.00    +0.244 C 
ATOM     18  O   UNL     1      -1.072   2.322 -21.220  0.00  0.00    -0.479 OA
ATOM     19  C   UNL     1      -0.248   3.103 -25.230  0.00  0.00    +0.090 C 
ATOM     20  C   UNL     1       0.185   2.187 -22.036  0.00  0.00    +0.167 A 
ENDROOT
BRANCH   1  22
ATOM     21  C   UNL     1       3.178   1.126 -21.010  0.00  0.00    +0.277 C 
ATOM     22  O   UNL     1       1.964   1.448 -20.998  0.00  0.00    -0.491 OA
ENDBRANCH   1  22
BRANCH  16  23
ATOM     23  O   UNL     1      -4.629   3.370 -21.579  0.00  0.00    -0.349 OA
ATOM     24  C   UNL     1      -5.397   2.404 -21.356  0.00  0.00    +0.197 C 
ENDBRANCH  16  23
BRANCH  16  25
ATOM     25  O   UNL     1      -3.322   2.824 -20.804  0.00  0.00    -0.349 OA
ATOM     26  C   UNL     1      -3.316   3.695 -19.901  0.00  0.00    +0.197 C 
ENDBRANCH  16  25
TORSDOF 3
ENDMDL
MODEL 2
REMARK VINA RESULT:   -10.208      2.036      3.443
REMARK INTER + INTRA:          -6.930
REMARK INTER:                 -11.119
REMARK INTRA:                   4.189
REMARK UNBOUND:                 5.068
REMARK  Name = COc1ccc2c3c1O[C@H]1C(OC)(OC)CC[C@@H]4[C@@H](C2)N(C)CC[C@@]341        ZINC000253505296
REMARK  7 active torsions:
REMARK  status: ('A' for Active; 'I' for Inactive)
REMARK    1  A    between atoms: C_1  and  O_2
REMARK    2  A    between atoms: O_2  and  C_3
REMARK    3  A    between atoms: C_11  and  O_12
REMARK    4  A    between atoms: C_11  and  O_14
REMARK    5  A    between atoms: O_12  and  C_13
REMARK    6  A    between atoms: O_14  and  C_15
REMARK    7  A    between atoms: N_21  and  C_22
REMARK                            x       y       z     vdW  Elec       q    Type
REMARK                         _______ _______ _______ _____ _____    ______ ____
ROOT
ATOM      1  C   UNL     1       1.640   2.306 -23.795  0.00  0.00    +0.162 A 
ATOM      2  C   UNL     1       1.936   1.867 -22.642  0.00  0.00    +0.050 A 
ATOM      3  C   UNL     1       1.053   1.746 -21.761  0.00  0.00    +0.008 A 
ATOM      4  C   UNL     1      -0.134   2.061 -22.022  0.00  0.00    -0.035 A 
ATOM      5  C   UNL     1      -0.454   2.500 -23.162  0.00  0.00    +0.012 A 
ATOM      6  C   UNL     1      -1.640   2.813 -23.416  0.00  0.00    +0.054 C 
ATOM      7  C   UNL     1      -2.954   3.202 -23.823  0.00  0.00    +0.067 C 
ATOM      8  C   UNL     1      -3.973   3.076 -22.851  0.00  0.00    +0.132 C 
ATOM      9  N   UNL     1      -3.606   2.583 -21.576  0.00  0.00    +0.236 N 
ATOM     10  H   UNL     1      -4.300   2.473 -20.838  0.00  0.00    +0.203 HD
ATOM     11  C   UNL     1      -4.448   2.441 -20.658  0.00  0.00    +0.190 C 
ATOM     12  C   UNL     1      -2.227   2.254 -21.385  0.00  0.00    +0.072 C 
ATOM     13  C   UNL     1      -2.527   2.693 -22.537  0.00  0.00    +0.053 C 
ATOM     14  C   UNL     1      -3.728   3.011 -22.796  0.00  0.00    +0.015 C 
ATOM     15  C   UNL     1      -4.028   3.445 -23.934  0.00  0.00    +0.069 C 
ATOM     16  C   UNL     1      -3.140   3.571 -24.830  0.00  0.00    +0.208 C 
ATOM     17  C   UNL     1      -1.953   3.256 -24.570  0.00  0.00    +0.244 C 
ATOM     18  O   UNL     1      -0.530   3.150 -25.081  0.00  0.00    -0.479 OA
ATOM     19  C   UNL     1      -1.041   1.939 -21.127  0.00  0.00    +0.090 C 
ATOM     20  C   UNL     1       0.436   2.624 -24.054  0.00  0.00    +0.167 A 
ENDROOT
BRANCH   1  22
ATOM     21  C   UNL     1       3.733   2.236 -24.380  0.00  0.00    +0.277 C 
ATOM     22  O   UNL     1       2.526   2.426 -24.674  0.00  0.00    -0.491 OA
ENDBRANCH   1  22
BRANCH  16  23
ATOM     23  O   UNL     1      -4.143   3.975 -25.466  0.00  0.00    -0.349 OA
ATOM     24  C   UNL     1      -4.406   5.200 -25.509  0.00  0.00    +0.197 C 
ENDBRANCH  16  23
BRANCH  16  25
ATOM     25  O   UNL     1      -2.603   3.832 -25.932  0.00  0.00    -0.349 OA
ATOM     26  C   UNL     1      -3.090   3.372 -26.993  0.00  0.00    +0.197 C 
ENDBRANCH  16  25
TORSDOF 3
ENDMDL
MODEL 3
REMARK VINA RESULT:    -9.724      2.219      5.803
REMARK INTER + INTRA:          -6.361
REMARK INTER:                 -10.394
REMARK INTRA:                   4.033
REMARK UNBOUND:                 5.068
REMARK  Name = COc1ccc2c3c1O[C@H]1C(OC)(OC)CC[C@@H]4[C@@H](C2)N(C)CC[C@@]341        ZINC000253505296
REMARK  7 active torsions:
REMARK  status: ('A' for Active; 'I' for Inactive)
REMARK    1  A    between atoms: C_1  and  O_2
REMARK    2  A    between atoms: O_2  and  C_3
REMARK    3  A    between atoms: C_11  and  O_12
REMARK    4  A    between atoms: C_11  and  O_14
REMARK    5  A    between atoms: O_12  and  C_13
REMARK    6  A    between atoms: O_14  and  C_15
REMARK    7  A    between atoms: N_21  and  C_22
REMARK                            x       y       z     vdW  Elec       q    Type
REMARK                         _______ _______ _______ _____ _____    ______ ____
ROOT
ATOM      1  C   UNL     1      -4.121   3.706 -23.988  0.00  0.00    +0.162 A 
ATOM      2  C   UNL     1      -4.728   3.462 -22.901  0.00  0.00    +0.050 A 
ATOM      3  C   UNL     1      -4.107   3.000 -21.915  0.00  0.00    +0.008 A 
ATOM      4  C   UNL     1      -2.875   2.776 -22.005  0.00  0.00    -0.035 A 
ATOM      5  C   UNL     1      -2.249   3.009 -23.076  0.00  0.00    +0.012 A 
ATOM      6  C   UNL     1      -1.020   2.784 -23.160  0.00  0.00    +0.054 C 
ATOM      7  C   UNL     1       0.377   2.568 -23.376  0.00  0.00    +0.067 C 
ATOM      8  C   UNL     1       1.106   2.046 -22.282  0.00  0.00    +0.132 C 
ATOM      9  N   UNL     1       0.396   1.788 -21.085  0.00  0.00    +0.236 N 
ATOM     10  H   UNL     1       0.872   1.411 -20.266  0.00  0.00    +0.203 HD
ATOM     11  C   UNL     1       0.967   1.325 -20.069  0.00  0.00    +0.190 C 
ATOM     12  C   UNL     1      -1.004   2.079 -21.090  0.00  0.00    +0.072 C 
ATOM     13  C   UNL     1      -0.394   2.321 -22.176  0.00  0.00    +0.053 C 
ATOM     14  C   UNL     1       0.851   2.093 -22.262  0.00  0.00    +0.015 C 
ATOM     15  C   UNL     1       1.457   2.331 -23.335  0.00  0.00    +0.069 C 
ATOM     16  C   UNL     1       0.835   2.798 -24.335  0.00  0.00    +0.208 C 
ATOM     17  C   UNL     1      -0.397   3.023 -24.247  0.00  0.00    +0.244 C 
ATOM     18  O   UNL     1      -1.647   3.518 -24.945  0.00  0.00    -0.479 OA
ATOM     19  C   UNL     1      -2.235   2.304 -21.002  0.00  0.00    +0.090 C 
ATOM     20  C   UNL     1      -2.874   3.477 -24.075  0.00  0.00    +0.167 A 
ENDROOT
BRANCH   1  22
ATOM     21  C   UNL     1      -5.136   3.401 -25.887  0.00  0.00    +0.277 C 
ATOM     22  O   UNL     1      -4.747   4.168 -24.972  0.00  0.00    -0.491 OA
ENDBRANCH   1  22
BRANCH  16  23
ATOM     23  O   UNL     1       1.991   2.723 -24.818  0.00  0.00    -0.349 OA
ATOM     24  C   UNL     1       2.304   1.753 -25.548  0.00  0.00    +0.197 C 
ENDBRANCH  16  23
BRANCH  16  25
ATOM     25  O   UNL     1       0.614   3.236 -25.490  0.00  0.00    -0.349 OA
ATOM     26  C   UNL     1       1.161   4.297 -25.875  0.00  0.00    +0.197 C 
ENDBRANCH  16  25
TORSDOF 3
ENDMDL
MODEL 4
REMARK VINA RESULT:    -9.556      2.089      5.400
REMARK INTER + INTRA:          -6.164
REMARK INTER:                 -10.187
REMARK INTRA:                   4.022
REMARK UNBOUND:                 5.068
REMARK  Name = COc1ccc2c3c1O[C@H]1C(OC)(OC)CC[C@@H]4[C@@H](C2)N(C)CC[C@@]341        ZINC000253505296
REMARK  7 active torsions:
REMARK  status: ('A' for Active; 'I' for Inactive)
REMARK    1  A    between atoms: C_1  and  O_2
REMARK    2  A    between atoms: O_2  and  C_3
REMARK    3  A    between atoms: C_11  and  O_12
REMARK    4  A    between atoms: C_11  and  O_14
REMARK    5  A    between atoms: O_12  and  C_13
REMARK    6  A    between atoms: O_14  and  C_15
REMARK    7  A    between atoms: N_21  and  C_22
REMARK                            x       y       z     vdW  Elec       q    Type
REMARK                         _______ _______ _______ _____ _____    ______ ____
ROOT
ATOM      1  C   UNL     1      -4.172   3.082 -26.107  0.00  0.00    +0.162 A 
ATOM      2  C   UNL     1      -5.314   3.474 -25.718  0.00  0.00    +0.050 A 
ATOM      3  C   UNL     1      -5.535   3.688 -24.503  0.00  0.00    +0.008 A 
ATOM      4  C   UNL     1      -4.617   3.513 -23.664  0.00  0.00    -0.035 A 
ATOM      5  C   UNL     1      -3.472   3.124 -24.025  0.00  0.00    +0.012 A 
ATOM      6  C   UNL     1      -2.561   2.952 -23.184  0.00  0.00    +0.054 C 
ATOM      7  C   UNL     1      -1.445   2.720 -22.320  0.00  0.00    +0.067 C 
ATOM      8  C   UNL     1      -1.662   2.953 -20.942  0.00  0.00    +0.132 C 
ATOM      9  N   UNL     1      -2.948   3.389 -20.546  0.00  0.00    +0.236 N 
ATOM     10  H   UNL     1      -3.160   3.572 -19.565  0.00  0.00    +0.203 HD
ATOM     11  C   UNL     1      -3.224   3.619 -19.344  0.00  0.00    +0.190 C 
ATOM     12  C   UNL     1      -3.920   3.556 -21.581  0.00  0.00    +0.072 C 
ATOM     13  C   UNL     1      -2.777   3.165 -21.967  0.00  0.00    +0.053 C 
ATOM     14  C   UNL     1      -1.852   2.990 -21.115  0.00  0.00    +0.015 C 
ATOM     15  C   UNL     1      -0.720   2.603 -21.492  0.00  0.00    +0.069 C 
ATOM     16  C   UNL     1      -0.491   2.384 -22.719  0.00  0.00    +0.208 C 
ATOM     17  C   UNL     1      -1.407   2.558 -23.560  0.00  0.00    +0.244 C 
ATOM     18  O   UNL     1      -1.815   2.504 -25.018  0.00  0.00    -0.479 OA
ATOM     19  C   UNL     1      -4.836   3.730 -22.421  0.00  0.00    +0.090 C 
ATOM     20  C   UNL     1      -3.246   2.907 -25.253  0.00  0.00    +0.167 A 
ENDROOT
BRANCH   1  22
ATOM     21  C   UNL     1      -3.237   3.661 -27.982  0.00  0.00    +0.277 C 
ATOM     22  O   UNL     1      -3.956   2.869 -27.323  0.00  0.00    -0.491 OA
ENDBRANCH   1  22
BRANCH  16  23
ATOM     23  O   UNL     1       0.634   2.104 -22.239  0.00  0.00    -0.349 OA
ATOM     24  C   UNL     1       0.986   0.905 -22.125  0.00  0.00    +0.197 C 
ENDBRANCH  16  23
BRANCH  16  25
ATOM     25  O   UNL     1       0.120   2.073 -23.770  0.00  0.00    -0.349 OA
ATOM     26  C   UNL     1       1.119   2.736 -24.136  0.00  0.00    +0.197 C 
ENDBRANCH  16  25
TORSDOF 3
ENDMDL
MODEL 5
REMARK VINA RESULT:    -8.845      2.598      6.081
REMARK INTER + INTRA:          -5.328
REMARK INTER:                  -9.598
REMARK INTRA:                   4.270
REMARK UNBOUND:                 5.068
REMARK  Name = COc1ccc2c3c1O[C@H]1C(OC)(OC)CC[C@@H]4[C@@H](C2)N(C)CC[C@@]341        ZINC000253505296
REMARK  7 active torsions:
REMARK  status: ('A' for Active; 'I' for Inactive)
REMARK    1  A    between atoms: C_1  and  O_2
REMARK    2  A    between atoms: O_2  and  C_3
REMARK    3  A    between atoms: C_11  and  O_12
REMARK    4  A    between atoms: C_11  and  O_14
REMARK    5  A    between atoms: O_12  and  C_13
REMARK    6  A    between atoms: O_14  and  C_15
REMARK    7  A    between atoms: N_21  and  C_22
REMARK                            x       y       z     vdW  Elec       q    Type
REMARK                         _______ _______ _______ _____ _____    ______ ____
ROOT
ATOM      1  C   UNL     1      -1.478   3.317 -23.358  0.00  0.00    +0.162 A 
ATOM      2  C   UNL     1      -1.618   4.554 -23.603  0.00  0.00    +0.050 A 
ATOM      3  C   UNL     1      -0.626   5.319 -23.607  0.00  0.00    +0.008 A 
ATOM      4  C   UNL     1       0.517   4.858 -23.367  0.00  0.00    -0.035 A 
ATOM      5  C   UNL     1       0.683   3.630 -23.120  0.00  0.00    +0.012 A 
ATOM      6  C   UNL     1       1.825   3.176 -22.881  0.00  0.00    +0.054 C 
ATOM      7  C   UNL     1       3.075   2.542 -22.595  0.00  0.00    +0.067 C 
ATOM      8  C   UNL     1       4.214   3.380 -22.592  0.00  0.00    +0.132 C 
ATOM      9  N   UNL     1       4.019   4.753 -22.869  0.00  0.00    +0.236 N 
ATOM     10  H   UNL     1       4.806   5.402 -22.880  0.00  0.00    +0.203 HD
ATOM     11  C   UNL     1       4.975   5.564 -22.886  0.00  0.00    +0.190 C 
ATOM     12  C   UNL     1       2.677   5.174 -23.129  0.00  0.00    +0.072 C 
ATOM     13  C   UNL     1       2.821   3.938 -22.884  0.00  0.00    +0.053 C 
ATOM     14  C   UNL     1       3.978   3.476 -22.642  0.00  0.00    +0.015 C 
ATOM     15  C   UNL     1       4.124   2.254 -22.399  0.00  0.00    +0.069 C 
ATOM     16  C   UNL     1       3.125   1.475 -22.393  0.00  0.00    +0.208 C 
ATOM     17  C   UNL     1       1.982   1.935 -22.633  0.00  0.00    +0.244 C 
ATOM     18  O   UNL     1       0.503   1.639 -22.781  0.00  0.00    -0.479 OA
ATOM     19  C   UNL     1       1.535   5.634 -23.369  0.00  0.00    +0.090 C 
ATOM     20  C   UNL     1      -0.319   2.855 -23.116  0.00  0.00    +0.167 A 
ENDROOT
BRANCH   1  22
ATOM     21  C   UNL     1      -3.574   2.960 -22.904  0.00  0.00    +0.277 C 
ATOM     22  O   UNL     1      -2.474   2.555 -23.355  0.00  0.00    -0.491 OA
ENDBRANCH   1  22
BRANCH  16  23
ATOM     23  O   UNL     1       4.035   0.656 -22.119  0.00  0.00    -0.349 OA
ATOM     24  C   UNL     1       4.185   0.255 -20.940  0.00  0.00    +0.197 C 
ENDBRANCH  16  23
BRANCH  16  25
ATOM     25  O   UNL     1       2.446   0.425 -22.294  0.00  0.00    -0.349 OA
ATOM     26  C   UNL     1       2.397  -0.384 -23.252  0.00  0.00    +0.197 C 
ENDBRANCH  16  25
TORSDOF 3
ENDMDL
MODEL 6
REMARK VINA RESULT:    -8.386      3.526      7.491
REMARK INTER + INTRA:          -4.788
REMARK INTER:                  -8.844
REMARK INTRA:                   4.056
REMARK UNBOUND:                 5.068
REMARK  Name = COc1ccc2c3c1O[C@H]1C(OC)(OC)CC[C@@H]4[C@@H](C2)N(C)CC[C@@]341        ZINC000253505296
REMARK  7 active torsions:
REMARK  status: ('A' for Active; 'I' for Inactive)
REMARK    1  A    between atoms: C_1  and  O_2
REMARK    2  A    between atoms: O_2  and  C_3
REMARK    3  A    between atoms: C_11  and  O_12
REMARK    4  A    between atoms: C_11  and  O_14
REMARK    5  A    between atoms: O_12  and  C_13
REMARK    6  A    between atoms: O_14  and  C_15
REMARK    7  A    between atoms: N_21  and  C_22
REMARK                            x       y       z     vdW  Elec       q    Type
REMARK                         _______ _______ _______ _____ _____    ______ ____
ROOT
ATOM      1  C   UNL     1       0.384   3.670 -23.427  0.00  0.00    +0.162 A 
ATOM      2  C   UNL     1      -0.267   2.645 -23.060  0.00  0.00    +0.050 A 
ATOM      3  C   UNL     1       0.315   1.688 -22.498  0.00  0.00    +0.008 A 
ATOM      4  C   UNL     1       1.553   1.744 -22.299  0.00  0.00    -0.035 A 
ATOM      5  C   UNL     1       2.224   2.752 -22.656  0.00  0.00    +0.012 A 
ATOM      6  C   UNL     1       3.459   2.802 -22.454  0.00  0.00    +0.054 C 
ATOM      7  C   UNL     1       4.868   2.975 -22.279  0.00  0.00    +0.067 C 
ATOM      8  C   UNL     1       5.554   1.911 -21.648  0.00  0.00    +0.132 C 
ATOM      9  N   UNL     1       4.795   0.785 -21.252  0.00  0.00    +0.236 N 
ATOM     10  H   UNL     1       5.239  -0.010 -20.793  0.00  0.00    +0.203 HD
ATOM     11  C   UNL     1       5.326  -0.201 -20.686  0.00  0.00    +0.190 C 
ATOM     12  C   UNL     1       3.392   0.824 -21.526  0.00  0.00    +0.072 C 
ATOM     13  C   UNL     1       4.046   1.847 -21.893  0.00  0.00    +0.053 C 
ATOM     14  C   UNL     1       5.298   1.899 -21.689  0.00  0.00    +0.015 C 
ATOM     15  C   UNL     1       5.948   2.909 -22.050  0.00  0.00    +0.069 C 
ATOM     16  C   UNL     1       5.365   3.881 -22.618  0.00  0.00    +0.208 C 
ATOM     17  C   UNL     1       4.127   3.826 -22.818  0.00  0.00    +0.244 C 
ATOM     18  O   UNL     1       2.902   4.524 -23.373  0.00  0.00    -0.479 OA
ATOM     19  C   UNL     1       2.155   0.770 -21.726  0.00  0.00    +0.090 C 
ATOM     20  C   UNL     1       1.637   3.722 -23.223  0.00  0.00    +0.167 A 
ENDROOT
BRANCH   1  22
ATOM     21  C   UNL     1      -1.399   4.883 -23.703  0.00  0.00    +0.277 C 
ATOM     22  O   UNL     1      -0.204   4.625 -23.988  0.00  0.00    -0.491 OA
ENDBRANCH   1  22
BRANCH  16  23
ATOM     23  O   UNL     1       6.542   4.314 -22.609  0.00  0.00    -0.349 OA
ATOM     24  C   UNL     1       7.203   4.359 -23.674  0.00  0.00    +0.197 C 
ENDBRANCH  16  23
BRANCH  16  25
ATOM     25  O   UNL     1       5.189   4.989 -23.177  0.00  0.00    -0.349 OA
ATOM     26  C   UNL     1       5.397   6.052 -22.544  0.00  0.00    +0.197 C 
ENDBRANCH  16  25
TORSDOF 3
ENDMDL
MODEL 7
REMARK VINA RESULT:    -8.161      4.800      7.684
REMARK INTER + INTRA:          -4.524
REMARK INTER:                  -8.625
REMARK INTRA:                   4.101
REMARK UNBOUND:                 5.068
REMARK  Name = COc1ccc2c3c1O[C@H]1C(OC)(OC)CC[C@@H]4[C@@H](C2)N(C)CC[C@@]341        ZINC000253505296
REMARK  7 active torsions:
REMARK  status: ('A' for Active; 'I' for Inactive)
REMARK    1  A    between atoms: C_1  and  O_2
REMARK    2  A    between atoms: O_2  and  C_3
REMARK    3  A    between atoms: C_11  and  O_12
REMARK    4  A    between atoms: C_11  and  O_14
REMARK    5  A    between atoms: O_12  and  C_13
REMARK    6  A    between atoms: O_14  and  C_15
REMARK    7  A    between atoms: N_21  and  C_22
REMARK                            x       y       z     vdW  Elec       q    Type
REMARK                         _______ _______ _______ _____ _____    ______ ____
ROOT
ATOM      1  C   UNL     1       0.842   4.254 -23.707  0.00  0.00    +0.162 A 
ATOM      2  C   UNL     1       0.906   3.090 -24.208  0.00  0.00    +0.050 A 
ATOM      3  C   UNL     1       2.008   2.505 -24.320  0.00  0.00    +0.008 A 
ATOM      4  C   UNL     1       3.058   3.075 -23.933  0.00  0.00    -0.035 A 
ATOM      5  C   UNL     1       3.020   4.232 -23.431  0.00  0.00    +0.012 A 
ATOM      6  C   UNL     1       4.071   4.796 -23.046  0.00  0.00    +0.054 C 
ATOM      7  C   UNL     1       5.198   5.538 -22.573  0.00  0.00    +0.067 C 
ATOM      8  C   UNL     1       6.456   4.904 -22.686  0.00  0.00    +0.132 C 
ATOM      9  N   UNL     1       6.489   3.607 -23.250  0.00  0.00    +0.236 N 
ATOM     10  H   UNL     1       7.370   3.104 -23.355  0.00  0.00    +0.203 HD
ATOM     11  C   UNL     1       7.563   2.975 -23.386  0.00  0.00    +0.190 C 
ATOM     12  C   UNL     1       5.237   3.050 -23.658  0.00  0.00    +0.072 C 
ATOM     13  C   UNL     1       5.176   4.214 -23.156  0.00  0.00    +0.053 C 
ATOM     14  C   UNL     1       6.240   4.786 -22.766  0.00  0.00    +0.015 C 
ATOM     15  C   UNL     1       6.184   5.937 -22.269  0.00  0.00    +0.069 C 
ATOM     16  C   UNL     1       5.072   6.534 -22.153  0.00  0.00    +0.208 C 
ATOM     17  C   UNL     1       4.022   5.966 -22.540  0.00  0.00    +0.244 C 
ATOM     18  O   UNL     1       2.518   6.055 -22.698  0.00  0.00    -0.479 OA
ATOM     19  C   UNL     1       4.187   2.482 -24.044  0.00  0.00    +0.090 C 
ATOM     20  C   UNL     1       1.907   4.827 -23.316  0.00  0.00    +0.167 A 
ENDROOT
BRANCH   1  22
ATOM     21  C   UNL     1      -1.044   4.530 -22.662  0.00  0.00    +0.277 C 
ATOM     22  O   UNL     1      -0.263   4.836 -23.597  0.00  0.00    -0.491 OA
ENDBRANCH   1  22
BRANCH  16  23
ATOM     23  O   UNL     1       5.835   7.406 -21.671  0.00  0.00    -0.349 OA
ATOM     24  C   UNL     1       5.943   7.527 -20.427  0.00  0.00    +0.197 C 
ENDBRANCH  16  23
BRANCH  16  25
ATOM     25  O   UNL     1       4.232   7.422 -21.874  0.00  0.00    -0.349 OA
ATOM     26  C   UNL     1       4.410   8.601 -22.267  0.00  0.00    +0.197 C 
ENDBRANCH  16  25
TORSDOF 3
ENDMDL
