MODEL 1
REMARK VINA RESULT:   -10.336      0.000      0.000
REMARK INTER + INTRA:         -10.639
REMARK INTER:                 -10.639
REMARK INTRA:                   0.000
REMARK UNBOUND:                 0.000
REMARK  Name = ZINC000001672586
REMARK  4 active torsions:
REMARK  status: ('A' for Active; 'I' for Inactive)
REMARK    1  A    between atoms: C_1  and  C_2
REMARK    2  A    between atoms: C_4  and  O_5
REMARK    3  A    between atoms: C_6  and  C_7
REMARK    4  A    between atoms: C_13  and  C_14
REMARK                            x       y       z     vdW  Elec       q    Type
REMARK                         _______ _______ _______ _____ _____    ______ ____
ROOT
ATOM      1  C   UNL     1      -5.857   3.367 -22.108  0.00  0.00    +0.044 C 
ATOM      2  C   UNL     1      -4.906   3.448 -22.991  0.00  0.00    -0.043 A 
ATOM      3  C   UNL     1      -5.161   3.902 -24.182  0.00  0.00    +0.049 A 
ATOM      4  C   UNL     1      -4.210   3.982 -25.065  0.00  0.00    +0.120 A 
ATOM      5  C   UNL     1      -3.004   3.609 -24.757  0.00  0.00    -0.002 A 
ATOM      6  C   UNL     1      -2.749   3.154 -23.565  0.00  0.00    +0.003 A 
ATOM      7  C   UNL     1      -1.542   2.781 -23.257  0.00  0.00    +0.211 C 
ATOM      8  O   UNL     1      -0.436   2.760 -23.941  0.00  0.00    -0.456 OA
ATOM      9  C   UNL     1       0.503   2.293 -23.172  0.00  0.00    +0.311 C 
ATOM     10  O   UNL     1       1.748   2.124 -23.503  0.00  0.00    -0.251 OA
ATOM     11  C   UNL     1      -0.023   2.025 -22.014  0.00  0.00    +0.102 C 
ATOM     12  C   UNL     1       0.605   1.541 -20.984  0.00  0.00    +0.019 C 
ATOM     13  C   UNL     1      -1.287   2.327 -22.066  0.00  0.00    +0.048 C 
ATOM     14  C   UNL     1      -2.238   2.246 -21.183  0.00  0.00    +0.013 C 
ATOM     15  C   UNL     1      -3.444   2.620 -21.491  0.00  0.00    +0.036 C 
ATOM     16  C   UNL     1      -2.053   3.689 -25.640  0.00  0.00    +0.048 C 
ATOM     17  C   UNL     1      -3.699   3.074 -22.682  0.00  0.00    -0.037 A 
ENDROOT
BRANCH   4  18
ATOM     18  O   UNL     1      -4.466   4.436 -26.256  0.00  0.00    -0.506 OA
ATOM     19  H   UNL     1      -3.847   4.309 -26.948  0.00  0.00    +0.292 HD
ENDBRANCH   4  18
TORSDOF 1
ENDMDL
MODEL 2
REMARK VINA RESULT:   -10.169      1.743      2.893
REMARK INTER + INTRA:         -10.467
REMARK INTER:                 -10.467
REMARK INTRA:                   0.000
REMARK UNBOUND:                 0.000
REMARK  Name = ZINC000001672586
REMARK  4 active torsions:
REMARK  status: ('A' for Active; 'I' for Inactive)
REMARK    1  A    between atoms: C_1  and  C_2
REMARK    2  A    between atoms: C_4  and  O_5
REMARK    3  A    between atoms: C_6  and  C_7
REMARK    4  A    between atoms: C_13  and  C_14
REMARK                            x       y       z     vdW  Elec       q    Type
REMARK                         _______ _______ _______ _____ _____    ______ ____
ROOT
ATOM      1  C   UNL     1      -4.111   4.385 -25.681  0.00  0.00    +0.044 C 
ATOM      2  C   UNL     1      -4.034   3.906 -24.474  0.00  0.00    -0.043 A 
ATOM      3  C   UNL     1      -5.098   3.847 -23.730  0.00  0.00    +0.049 A 
ATOM      4  C   UNL     1      -5.022   3.368 -22.523  0.00  0.00    +0.120 A 
ATOM      5  C   UNL     1      -3.881   2.948 -22.062  0.00  0.00    -0.002 A 
ATOM      6  C   UNL     1      -2.817   3.008 -22.807  0.00  0.00    +0.003 A 
ATOM      7  C   UNL     1      -1.676   2.588 -22.345  0.00  0.00    +0.211 C 
ATOM      8  O   UNL     1      -1.337   2.077 -21.200  0.00  0.00    -0.456 OA
ATOM      9  C   UNL     1      -0.062   1.820 -21.236  0.00  0.00    +0.311 C 
ATOM     10  O   UNL     1       0.641   1.301 -20.273  0.00  0.00    -0.251 OA
ATOM     11  C   UNL     1       0.385   2.173 -22.404  0.00  0.00    +0.102 C 
ATOM     12  C   UNL     1       1.614   2.069 -22.815  0.00  0.00    +0.019 C 
ATOM     13  C   UNL     1      -0.612   2.648 -23.090  0.00  0.00    +0.048 C 
ATOM     14  C   UNL     1      -0.689   3.127 -24.296  0.00  0.00    +0.013 C 
ATOM     15  C   UNL     1      -1.830   3.546 -24.758  0.00  0.00    +0.036 C 
ATOM     16  C   UNL     1      -3.804   2.469 -20.856  0.00  0.00    +0.048 C 
ATOM     17  C   UNL     1      -2.894   3.487 -24.013  0.00  0.00    -0.037 A 
ENDROOT
BRANCH   4  18
ATOM     18  O   UNL     1      -6.086   3.308 -21.779  0.00  0.00    -0.506 OA
ATOM     19  H   UNL     1      -6.688   4.025 -21.765  0.00  0.00    +0.292 HD
ENDBRANCH   4  18
TORSDOF 1
ENDMDL
MODEL 3
REMARK VINA RESULT:    -9.602      1.365      4.576
REMARK INTER + INTRA:          -9.883
REMARK INTER:                  -9.883
REMARK INTRA:                   0.000
REMARK UNBOUND:                 0.000
REMARK  Name = ZINC000001672586
REMARK  4 active torsions:
REMARK  status: ('A' for Active; 'I' for Inactive)
REMARK    1  A    between atoms: C_1  and  C_2
REMARK    2  A    between atoms: C_4  and  O_5
REMARK    3  A    between atoms: C_6  and  C_7
REMARK    4  A    between atoms: C_13  and  C_14
REMARK                            x       y       z     vdW  Elec       q    Type
REMARK                         _______ _______ _______ _____ _____    ______ ____
ROOT
ATOM      1  C   UNL     1       1.477   1.549 -21.717  0.00  0.00    +0.044 C 
ATOM      2  C   UNL     1       0.806   2.088 -22.691  0.00  0.00    -0.043 A 
ATOM      3  C   UNL     1       1.407   2.395 -23.803  0.00  0.00    +0.049 A 
ATOM      4  C   UNL     1       0.735   2.934 -24.777  0.00  0.00    +0.120 A 
ATOM      5  C   UNL     1      -0.536   3.166 -24.640  0.00  0.00    -0.002 A 
ATOM      6  C   UNL     1      -1.137   2.859 -23.528  0.00  0.00    +0.003 A 
ATOM      7  C   UNL     1      -2.409   3.092 -23.391  0.00  0.00    +0.211 C 
ATOM      8  O   UNL     1      -3.290   3.610 -24.194  0.00  0.00    -0.456 OA
ATOM      9  C   UNL     1      -4.435   3.623 -23.579  0.00  0.00    +0.311 C 
ATOM     10  O   UNL     1      -5.557   4.069 -24.062  0.00  0.00    -0.251 OA
ATOM     11  C   UNL     1      -4.262   3.114 -22.396  0.00  0.00    +0.102 C 
ATOM     12  C   UNL     1      -5.180   2.959 -21.489  0.00  0.00    +0.019 C 
ATOM     13  C   UNL     1      -3.009   2.785 -22.280  0.00  0.00    +0.048 C 
ATOM     14  C   UNL     1      -2.338   2.245 -21.305  0.00  0.00    +0.013 C 
ATOM     15  C   UNL     1      -1.066   2.013 -21.443  0.00  0.00    +0.036 C 
ATOM     16  C   UNL     1      -1.207   3.705 -25.614  0.00  0.00    +0.048 C 
ATOM     17  C   UNL     1      -0.466   2.320 -22.554  0.00  0.00    -0.037 A 
ENDROOT
BRANCH   4  18
ATOM     18  O   UNL     1       1.336   3.241 -25.889  0.00  0.00    -0.506 OA
ATOM     19  H   UNL     1       0.936   3.841 -26.487  0.00  0.00    +0.292 HD
ENDBRANCH   4  18
TORSDOF 1
ENDMDL
MODEL 4
REMARK VINA RESULT:    -9.326      1.902      5.288
REMARK INTER + INTRA:          -9.598
REMARK INTER:                  -9.598
REMARK INTRA:                   0.000
REMARK UNBOUND:                 0.000
REMARK  Name = ZINC000001672586
REMARK  4 active torsions:
REMARK  status: ('A' for Active; 'I' for Inactive)
REMARK    1  A    between atoms: C_1  and  C_2
REMARK    2  A    between atoms: C_4  and  O_5
REMARK    3  A    between atoms: C_6  and  C_7
REMARK    4  A    between atoms: C_13  and  C_14
REMARK                            x       y       z     vdW  Elec       q    Type
REMARK                         _______ _______ _______ _____ _____    ______ ____
ROOT
ATOM      1  C   UNL     1       1.183   3.938 -25.495  0.00  0.00    +0.044 C 
ATOM      2  C   UNL     1       0.842   3.335 -24.395  0.00  0.00    -0.043 A 
ATOM      3  C   UNL     1       1.742   2.728 -23.680  0.00  0.00    +0.049 A 
ATOM      4  C   UNL     1       1.400   2.125 -22.580  0.00  0.00    +0.120 A 
ATOM      5  C   UNL     1       0.158   2.130 -22.195  0.00  0.00    -0.002 A 
ATOM      6  C   UNL     1      -0.742   2.738 -22.910  0.00  0.00    +0.003 A 
ATOM      7  C   UNL     1      -1.983   2.743 -22.524  0.00  0.00    +0.211 C 
ATOM      8  O   UNL     1      -2.575   2.227 -21.488  0.00  0.00    -0.456 OA
ATOM      9  C   UNL     1      -3.840   2.516 -21.562  0.00  0.00    +0.311 C 
ATOM     10  O   UNL     1      -4.755   2.171 -20.705  0.00  0.00    -0.251 OA
ATOM     11  C   UNL     1      -4.031   3.209 -22.644  0.00  0.00    +0.102 C 
ATOM     12  C   UNL     1      -5.169   3.681 -23.059  0.00  0.00    +0.019 C 
ATOM     13  C   UNL     1      -2.883   3.350 -23.239  0.00  0.00    +0.048 C 
ATOM     14  C   UNL     1      -2.542   3.953 -24.340  0.00  0.00    +0.013 C 
ATOM     15  C   UNL     1      -1.300   3.948 -24.725  0.00  0.00    +0.036 C 
ATOM     16  C   UNL     1      -0.183   1.528 -21.094  0.00  0.00    +0.048 C 
ATOM     17  C   UNL     1      -0.400   3.340 -24.010  0.00  0.00    -0.037 A 
ENDROOT
BRANCH   4  18
ATOM     18  O   UNL     1       2.300   1.518 -21.865  0.00  0.00    -0.506 OA
ATOM     19  H   UNL     1       2.485   1.813 -20.995  0.00  0.00    +0.292 HD
ENDBRANCH   4  18
TORSDOF 1
ENDMDL
MODEL 5
REMARK VINA RESULT:    -8.674      2.238      6.189
REMARK INTER + INTRA:          -8.928
REMARK INTER:                  -8.928
REMARK INTRA:                   0.000
REMARK UNBOUND:                 0.000
REMARK  Name = ZINC000001672586
REMARK  4 active torsions:
REMARK  status: ('A' for Active; 'I' for Inactive)
REMARK    1  A    between atoms: C_1  and  C_2
REMARK    2  A    between atoms: C_4  and  O_5
REMARK    3  A    between atoms: C_6  and  C_7
REMARK    4  A    between atoms: C_13  and  C_14
REMARK                            x       y       z     vdW  Elec       q    Type
REMARK                         _______ _______ _______ _____ _____    ______ ____
ROOT
ATOM      1  C   UNL     1       4.333   2.991 -23.629  0.00  0.00    +0.044 C 
ATOM      2  C   UNL     1       3.272   2.608 -22.984  0.00  0.00    -0.043 A 
ATOM      3  C   UNL     1       3.387   2.050 -21.815  0.00  0.00    +0.049 A 
ATOM      4  C   UNL     1       2.325   1.668 -21.170  0.00  0.00    +0.120 A 
ATOM      5  C   UNL     1       1.148   1.843 -21.693  0.00  0.00    -0.002 A 
ATOM      6  C   UNL     1       1.033   2.401 -22.862  0.00  0.00    +0.003 A 
ATOM      7  C   UNL     1      -0.144   2.576 -23.385  0.00  0.00    +0.211 C 
ATOM      8  O   UNL     1      -1.338   2.290 -22.957  0.00  0.00    -0.456 OA
ATOM      9  C   UNL     1      -2.191   2.671 -23.862  0.00  0.00    +0.311 C 
ATOM     10  O   UNL     1      -3.484   2.552 -23.791  0.00  0.00    -0.251 OA
ATOM     11  C   UNL     1      -1.525   3.192 -24.848  0.00  0.00    +0.102 C 
ATOM     12  C   UNL     1      -2.034   3.686 -25.938  0.00  0.00    +0.019 C 
ATOM     13  C   UNL     1      -0.260   3.134 -24.554  0.00  0.00    +0.048 C 
ATOM     14  C   UNL     1       0.802   3.516 -25.199  0.00  0.00    +0.013 C 
ATOM     15  C   UNL     1       1.979   3.341 -24.676  0.00  0.00    +0.036 C 
ATOM     16  C   UNL     1       0.086   1.461 -21.048  0.00  0.00    +0.048 C 
ATOM     17  C   UNL     1       2.094   2.783 -23.507  0.00  0.00    -0.037 A 
ENDROOT
BRANCH   4  18
ATOM     18  O   UNL     1       2.440   1.110 -20.001  0.00  0.00    -0.506 OA
ATOM     19  H   UNL     1       2.536   0.181 -19.933  0.00  0.00    +0.292 HD
ENDBRANCH   4  18
TORSDOF 1
ENDMDL
MODEL 6
REMARK VINA RESULT:    -8.508      1.652      5.390
REMARK INTER + INTRA:          -8.757
REMARK INTER:                  -8.757
REMARK INTRA:                   0.000
REMARK UNBOUND:                 0.000
REMARK  Name = ZINC000001672586
REMARK  4 active torsions:
REMARK  status: ('A' for Active; 'I' for Inactive)
REMARK    1  A    between atoms: C_1  and  C_2
REMARK    2  A    between atoms: C_4  and  O_5
REMARK    3  A    between atoms: C_6  and  C_7
REMARK    4  A    between atoms: C_13  and  C_14
REMARK                            x       y       z     vdW  Elec       q    Type
REMARK                         _______ _______ _______ _____ _____    ______ ____
ROOT
ATOM      1  C   UNL     1       2.545   1.116 -20.536  0.00  0.00    +0.044 C 
ATOM      2  C   UNL     1       2.323   1.511 -21.754  0.00  0.00    -0.043 A 
ATOM      3  C   UNL     1       3.298   1.546 -22.614  0.00  0.00    +0.049 A 
ATOM      4  C   UNL     1       3.077   1.940 -23.833  0.00  0.00    +0.120 A 
ATOM      5  C   UNL     1       1.880   2.300 -24.192  0.00  0.00    -0.002 A 
ATOM      6  C   UNL     1       0.905   2.265 -23.332  0.00  0.00    +0.003 A 
ATOM      7  C   UNL     1      -0.291   2.625 -23.692  0.00  0.00    +0.211 C 
ATOM      8  O   UNL     1      -0.769   3.050 -24.824  0.00  0.00    -0.456 OA
ATOM      9  C   UNL     1      -2.039   3.278 -24.664  0.00  0.00    +0.311 C 
ATOM     10  O   UNL     1      -2.858   3.714 -25.575  0.00  0.00    -0.251 OA
ATOM     11  C   UNL     1      -2.346   2.994 -23.434  0.00  0.00    +0.102 C 
ATOM     12  C   UNL     1      -3.526   3.096 -22.898  0.00  0.00    +0.019 C 
ATOM     13  C   UNL     1      -1.266   2.590 -22.832  0.00  0.00    +0.048 C 
ATOM     14  C   UNL     1      -1.044   2.196 -21.613  0.00  0.00    +0.013 C 
ATOM     15  C   UNL     1       0.152   1.836 -21.254  0.00  0.00    +0.036 C 
ATOM     16  C   UNL     1       1.659   2.695 -25.411  0.00  0.00    +0.048 C 
ATOM     17  C   UNL     1       1.127   1.871 -22.114  0.00  0.00    -0.037 A 
ENDROOT
BRANCH   4  18
ATOM     18  O   UNL     1       4.051   1.975 -24.692  0.00  0.00    -0.506 OA
ATOM     19  H   UNL     1       4.908   2.237 -24.419  0.00  0.00    +0.292 HD
ENDBRANCH   4  18
TORSDOF 1
ENDMDL
MODEL 7
REMARK VINA RESULT:    -8.466      3.575      7.313
REMARK INTER + INTRA:          -8.713
REMARK INTER:                  -8.713
REMARK INTRA:                   0.000
REMARK UNBOUND:                 0.000
REMARK  Name = ZINC000001672586
REMARK  4 active torsions:
REMARK  status: ('A' for Active; 'I' for Inactive)
REMARK    1  A    between atoms: C_1  and  C_2
REMARK    2  A    between atoms: C_4  and  O_5
REMARK    3  A    between atoms: C_6  and  C_7
REMARK    4  A    between atoms: C_13  and  C_14
REMARK                            x       y       z     vdW  Elec       q    Type
REMARK                         _______ _______ _______ _____ _____    ______ ____
ROOT
ATOM      1  C   UNL     1       5.965   5.176 -22.737  0.00  0.00    +0.044 C 
ATOM      2  C   UNL     1       5.309   4.054 -22.749  0.00  0.00    -0.043 A 
ATOM      3  C   UNL     1       5.941   2.930 -22.579  0.00  0.00    +0.049 A 
ATOM      4  C   UNL     1       5.285   1.807 -22.592  0.00  0.00    +0.120 A 
ATOM      5  C   UNL     1       3.998   1.809 -22.775  0.00  0.00    -0.002 A 
ATOM      6  C   UNL     1       3.366   2.932 -22.945  0.00  0.00    +0.003 A 
ATOM      7  C   UNL     1       2.079   2.934 -23.127  0.00  0.00    +0.211 C 
ATOM      8  O   UNL     1       1.207   1.971 -23.182  0.00  0.00    -0.456 OA
ATOM      9  C   UNL     1       0.037   2.500 -23.386  0.00  0.00    +0.311 C 
ATOM     10  O   UNL     1      -1.085   1.853 -23.499  0.00  0.00    -0.251 OA
ATOM     11  C   UNL     1       0.186   3.789 -23.457  0.00  0.00    +0.102 C 
ATOM     12  C   UNL     1      -0.761   4.658 -23.654  0.00  0.00    +0.019 C 
ATOM     13  C   UNL     1       1.448   4.058 -23.297  0.00  0.00    +0.048 C 
ATOM     14  C   UNL     1       2.104   5.180 -23.285  0.00  0.00    +0.013 C 
ATOM     15  C   UNL     1       3.391   5.179 -23.102  0.00  0.00    +0.036 C 
ATOM     16  C   UNL     1       3.342   0.686 -22.787  0.00  0.00    +0.048 C 
ATOM     17  C   UNL     1       4.022   4.055 -22.932  0.00  0.00    -0.037 A 
ENDROOT
BRANCH   4  18
ATOM     18  O   UNL     1       5.916   0.683 -22.422  0.00  0.00    -0.506 OA
ATOM     19  H   UNL     1       6.816   0.686 -22.160  0.00  0.00    +0.292 HD
ENDBRANCH   4  18
TORSDOF 1
ENDMDL
MODEL 8
REMARK VINA RESULT:    -7.988      2.851      4.453
REMARK INTER + INTRA:          -8.222
REMARK INTER:                  -8.222
REMARK INTRA:                   0.000
REMARK UNBOUND:                 0.000
REMARK  Name = ZINC000001672586
REMARK  4 active torsions:
REMARK  status: ('A' for Active; 'I' for Inactive)
REMARK    1  A    between atoms: C_1  and  C_2
REMARK    2  A    between atoms: C_4  and  O_5
REMARK    3  A    between atoms: C_6  and  C_7
REMARK    4  A    between atoms: C_13  and  C_14
REMARK                            x       y       z     vdW  Elec       q    Type
REMARK                         _______ _______ _______ _____ _____    ______ ____
ROOT
ATOM      1  C   UNL     1      -1.572   1.894 -21.754  0.00  0.00    +0.044 C 
ATOM      2  C   UNL     1      -0.716   2.745 -22.238  0.00  0.00    -0.043 A 
ATOM      3  C   UNL     1      -1.124   3.894 -22.687  0.00  0.00    +0.049 A 
ATOM      4  C   UNL     1      -0.268   4.745 -23.171  0.00  0.00    +0.120 A 
ATOM      5  C   UNL     1       0.997   4.445 -23.205  0.00  0.00    -0.002 A 
ATOM      6  C   UNL     1       1.405   3.296 -22.756  0.00  0.00    +0.003 A 
ATOM      7  C   UNL     1       2.670   2.997 -22.790  0.00  0.00    +0.211 C 
ATOM      8  O   UNL     1       3.708   3.655 -23.213  0.00  0.00    -0.456 OA
ATOM      9  C   UNL     1       4.759   2.911 -23.025  0.00  0.00    +0.311 C 
ATOM     10  O   UNL     1       5.983   3.230 -23.324  0.00  0.00    -0.251 OA
ATOM     11  C   UNL     1       4.369   1.795 -22.485  0.00  0.00    +0.102 C 
ATOM     12  C   UNL     1       5.136   0.801 -22.150  0.00  0.00    +0.019 C 
ATOM     13  C   UNL     1       3.078   1.847 -22.340  0.00  0.00    +0.048 C 
ATOM     14  C   UNL     1       2.222   0.997 -21.856  0.00  0.00    +0.013 C 
ATOM     15  C   UNL     1       0.957   1.296 -21.822  0.00  0.00    +0.036 C 
ATOM     16  C   UNL     1       1.853   5.296 -23.689  0.00  0.00    +0.048 C 
ATOM     17  C   UNL     1       0.549   2.446 -22.272  0.00  0.00    -0.037 A 
ENDROOT
BRANCH   4  18
ATOM     18  O   UNL     1      -0.676   5.894 -23.621  0.00  0.00    -0.506 OA
ATOM     19  H   UNL     1      -1.191   5.935 -24.403  0.00  0.00    +0.292 HD
ENDBRANCH   4  18
TORSDOF 1
ENDMDL
MODEL 9
REMARK VINA RESULT:    -7.589      2.754      6.252
REMARK INTER + INTRA:          -7.811
REMARK INTER:                  -7.811
REMARK INTRA:                   0.000
REMARK UNBOUND:                 0.000
REMARK  Name = ZINC000001672586
REMARK  4 active torsions:
REMARK  status: ('A' for Active; 'I' for Inactive)
REMARK    1  A    between atoms: C_1  and  C_2
REMARK    2  A    between atoms: C_4  and  O_5
REMARK    3  A    between atoms: C_6  and  C_7
REMARK    4  A    between atoms: C_13  and  C_14
REMARK                            x       y       z     vdW  Elec       q    Type
REMARK                         _______ _______ _______ _____ _____    ______ ____
ROOT
ATOM      1  C   UNL     1       4.365   0.798 -21.543  0.00  0.00    +0.044 C 
ATOM      2  C   UNL     1       3.931   1.918 -22.043  0.00  0.00    -0.043 A 
ATOM      3  C   UNL     1       4.775   2.837 -22.408  0.00  0.00    +0.049 A 
ATOM      4  C   UNL     1       4.341   3.957 -22.907  0.00  0.00    +0.120 A 
ATOM      5  C   UNL     1       3.063   4.156 -23.041  0.00  0.00    -0.002 A 
ATOM      6  C   UNL     1       2.219   3.237 -22.676  0.00  0.00    +0.003 A 
ATOM      7  C   UNL     1       0.942   3.437 -22.809  0.00  0.00    +0.211 C 
ATOM      8  O   UNL     1       0.263   4.445 -23.270  0.00  0.00    -0.456 OA
ATOM      9  C   UNL     1      -1.001   4.149 -23.189  0.00  0.00    +0.311 C 
ATOM     10  O   UNL     1      -1.989   4.910 -23.555  0.00  0.00    -0.251 OA
ATOM     11  C   UNL     1      -1.102   2.958 -22.679  0.00  0.00    +0.102 C 
ATOM     12  C   UNL     1      -2.210   2.319 -22.445  0.00  0.00    +0.019 C 
ATOM     13  C   UNL     1       0.098   2.517 -22.444  0.00  0.00    +0.048 C 
ATOM     14  C   UNL     1       0.532   1.398 -21.945  0.00  0.00    +0.013 C 
ATOM     15  C   UNL     1       1.810   1.198 -21.811  0.00  0.00    +0.036 C 
ATOM     16  C   UNL     1       2.629   5.276 -23.540  0.00  0.00    +0.048 C 
ATOM     17  C   UNL     1       2.654   2.118 -22.176  0.00  0.00    -0.037 A 
ENDROOT
BRANCH   4  18
ATOM     18  O   UNL     1       5.184   4.876 -23.272  0.00  0.00    -0.506 OA
ATOM     19  H   UNL     1       6.105   4.720 -23.204  0.00  0.00    +0.292 HD
ENDBRANCH   4  18
TORSDOF 1
ENDMDL
