MODEL 1
REMARK VINA RESULT:   -11.460      0.000      0.000
REMARK INTER + INTRA:         -13.244
REMARK INTER:                 -13.302
REMARK INTRA:                   0.058
REMARK UNBOUND:                 0.896
REMARK  Name = O=C(N/C(=C\c1ccccc1F)C(=O)N1C[C@H]2C[C@H](C1)c1cccc(=O)n1C2)c1ccccc1 ZINC000100392497
REMARK  4 active torsions:
REMARK  status: ('A' for Active; 'I' for Inactive)
REMARK    1  A    between atoms: C_2  and  C_29
REMARK    2  A    between atoms: N_3  and  C_4
REMARK    3  A    between atoms: C_4  and  C_13
REMARK    4  A    between atoms: C_5  and  C_6
REMARK                            x       y       z     vdW  Elec       q    Type
REMARK                         _______ _______ _______ _____ _____    ______ ____
ROOT
ATOM      1  C   UNL     1       2.558   2.613 -23.834  0.00  0.00    +0.097 C 
ATOM      2  C   UNL     1       2.383   1.518 -23.159  0.00  0.00    +0.039 C 
ENDROOT
BRANCH   1   3
ATOM      3  C   UNL     1       1.621   3.030 -24.686  0.00  0.00    +0.261 C 
ATOM      4  N   UNL     1       0.327   3.115 -24.301  0.00  0.00    -0.296 N 
ATOM      5  C   UNL     1      -0.082   2.789 -23.060  0.00  0.00    +0.113 C 
ATOM      6  C   UNL     1      -1.361   2.937 -22.882  0.00  0.00    +0.027 C 
ATOM      7  C   UNL     1      -1.798   3.252 -23.662  0.00  0.00    +0.018 C 
ATOM      8  C   UNL     1      -1.833   3.541 -24.563  0.00  0.00    +0.054 C 
ATOM      9  C   UNL     1      -3.017   3.731 -24.568  0.00  0.00    +0.027 A 
ATOM     10  C   UNL     1      -3.867   4.138 -25.433  0.00  0.00    +0.022 A 
ATOM     11  C   UNL     1      -5.152   4.239 -25.105  0.00  0.00    +0.007 A 
ATOM     12  C   UNL     1      -5.591   3.917 -23.860  0.00  0.00    +0.070 A 
ATOM     13  C   UNL     1      -4.762   3.487 -22.912  0.00  0.00    +0.251 A 
ATOM     14  O   UNL     1      -5.216   3.186 -21.727  0.00  0.00    -0.268 OA
ATOM     15  N   UNL     1      -3.514   3.370 -23.169  0.00  0.00    -0.312 N 
ATOM     16  C   UNL     1      -2.359   2.887 -22.219  0.00  0.00    +0.130 C 
ATOM     17  C   UNL     1      -0.657   3.530 -25.124  0.00  0.00    +0.117 C 
ATOM     18  O   UNL     1       1.962   3.359 -25.903  0.00  0.00    -0.269 OA
ENDBRANCH   1   3
BRANCH   2  19
ATOM     19  C   UNL     1       3.303   1.102 -22.318  0.00  0.00    +0.012 A 
ATOM     20  C   UNL     1       4.494   0.815 -22.765  0.00  0.00    +0.011 A 
ATOM     21  C   UNL     1       5.419   0.400 -21.942  0.00  0.00    +0.001 A 
ATOM     22  C   UNL     1       5.149   0.273 -20.671  0.00  0.00    +0.003 A 
ATOM     23  C   UNL     1       3.957   0.559 -20.224  0.00  0.00    +0.039 A 
ATOM     24  C   UNL     1       3.032   0.974 -21.047  0.00  0.00    +0.131 A 
ATOM     25  F   UNL     1       1.841   1.261 -20.600  0.00  0.00    -0.205 F 
ENDBRANCH   2  19
BRANCH   1  28
ATOM     26  O   UNL     1       2.550   4.896 -22.519  0.00  0.00    -0.270 OA
ATOM     27  C   UNL     1       3.666   4.437 -23.012  0.00  0.00    +0.248 C 
ATOM     28  N   UNL     1       3.672   3.304 -23.665  0.00  0.00    -0.277 N 
ATOM     29  H   UNL     1       4.518   2.962 -24.035  0.00  0.00    +0.155 HD
BRANCH  27  30
ATOM     30  C   UNL     1       4.784   5.118 -22.849  0.00  0.00    +0.037 A 
ATOM     31  C   UNL     1       5.917   4.607 -23.243  0.00  0.00    +0.013 A 
ATOM     32  C   UNL     1       7.027   5.276 -23.085  0.00  0.00    +0.001 A 
ATOM     33  C   UNL     1       7.001   6.458 -22.531  0.00  0.00    +0.000 A 
ATOM     34  C   UNL     1       5.868   6.970 -22.138  0.00  0.00    +0.001 A 
ATOM     35  C   UNL     1       4.757   6.301 -22.296  0.00  0.00    +0.013 A 
ENDBRANCH  27  30
ENDBRANCH   1  28
TORSDOF 4
ENDMDL
MODEL 2
REMARK VINA RESULT:    -9.268      2.277      7.993
REMARK INTER + INTRA:         -10.540
REMARK INTER:                 -10.815
REMARK INTRA:                   0.275
REMARK UNBOUND:                 0.896
REMARK  Name = O=C(N/C(=C\c1ccccc1F)C(=O)N1C[C@H]2C[C@H](C1)c1cccc(=O)n1C2)c1ccccc1 ZINC000100392497
REMARK  4 active torsions:
REMARK  status: ('A' for Active; 'I' for Inactive)
REMARK    1  A    between atoms: C_2  and  C_29
REMARK    2  A    between atoms: N_3  and  C_4
REMARK    3  A    between atoms: C_4  and  C_13
REMARK    4  A    between atoms: C_5  and  C_6
REMARK                            x       y       z     vdW  Elec       q    Type
REMARK                         _______ _______ _______ _____ _____    ______ ____
ROOT
ATOM      1  C   UNL     1       0.233   2.288 -23.180  0.00  0.00    +0.097 C 
ATOM      2  C   UNL     1       0.018   2.567 -21.931  0.00  0.00    +0.039 C 
ENDROOT
BRANCH   1   3
ATOM      3  C   UNL     1       1.466   1.994 -23.596  0.00  0.00    +0.261 C 
ATOM      4  N   UNL     1       2.482   2.868 -23.416  0.00  0.00    -0.296 N 
ATOM      5  C   UNL     1       2.311   4.063 -22.817  0.00  0.00    +0.113 C 
ATOM      6  C   UNL     1       3.405   4.762 -22.737  0.00  0.00    +0.027 C 
ATOM      7  C   UNL     1       4.148   4.310 -23.116  0.00  0.00    +0.018 C 
ATOM      8  C   UNL     1       4.575   3.586 -23.552  0.00  0.00    +0.054 C 
ATOM      9  C   UNL     1       5.661   4.093 -23.560  0.00  0.00    +0.027 A 
ATOM     10  C   UNL     1       6.820   3.751 -23.982  0.00  0.00    +0.022 A 
ATOM     11  C   UNL     1       7.852   4.575 -23.829  0.00  0.00    +0.007 A 
ATOM     12  C   UNL     1       7.709   5.785 -23.229  0.00  0.00    +0.070 A 
ATOM     13  C   UNL     1       6.533   6.205 -22.767  0.00  0.00    +0.251 A 
ATOM     14  O   UNL     1       6.428   7.373 -22.196  0.00  0.00    -0.268 OA
ATOM     15  N   UNL     1       5.503   5.455 -22.886  0.00  0.00    -0.312 N 
ATOM     16  C   UNL     1       4.028   5.736 -22.421  0.00  0.00    +0.130 C 
ATOM     17  C   UNL     1       3.744   2.618 -23.818  0.00  0.00    +0.117 C 
ATOM     18  O   UNL     1       1.687   0.848 -24.183  0.00  0.00    -0.269 OA
ENDBRANCH   1   3
BRANCH   2  19
ATOM     19  C   UNL     1      -1.195   2.858 -21.515  0.00  0.00    +0.012 A 
ATOM     20  C   UNL     1      -1.533   4.108 -21.357  0.00  0.00    +0.011 A 
ATOM     21  C   UNL     1      -2.733   4.414 -20.944  0.00  0.00    +0.001 A 
ATOM     22  C   UNL     1      -3.595   3.466 -20.690  0.00  0.00    +0.003 A 
ATOM     23  C   UNL     1      -3.257   2.216 -20.848  0.00  0.00    +0.039 A 
ATOM     24  C   UNL     1      -2.056   1.910 -21.261  0.00  0.00    +0.131 A 
ATOM     25  F   UNL     1      -1.718   0.660 -21.419  0.00  0.00    -0.205 F 
ENDBRANCH   2  19
BRANCH   1  28
ATOM     26  O   UNL     1      -0.566   4.533 -24.303  0.00  0.00    -0.270 OA
ATOM     27  C   UNL     1      -1.175   3.416 -24.585  0.00  0.00    +0.248 C 
ATOM     28  N   UNL     1      -0.781   2.300 -24.028  0.00  0.00    -0.277 N 
ATOM     29  H   UNL     1      -1.244   1.459 -24.244  0.00  0.00    +0.155 HD
BRANCH  27  30
ATOM     30  C   UNL     1      -2.188   3.416 -25.430  0.00  0.00    +0.037 A 
ATOM     31  C   UNL     1      -3.408   3.317 -24.979  0.00  0.00    +0.013 A 
ATOM     32  C   UNL     1      -4.415   3.317 -25.810  0.00  0.00    +0.001 A 
ATOM     33  C   UNL     1      -4.198   3.416 -27.094  0.00  0.00    +0.000 A 
ATOM     34  C   UNL     1      -2.979   3.515 -27.546  0.00  0.00    +0.001 A 
ATOM     35  C   UNL     1      -1.972   3.515 -26.715  0.00  0.00    +0.013 A 
ENDBRANCH  27  30
ENDBRANCH   1  28
TORSDOF 4
ENDMDL
MODEL 3
REMARK VINA RESULT:    -8.812      2.444      8.257
REMARK INTER + INTRA:          -9.977
REMARK INTER:                 -11.389
REMARK INTRA:                   1.413
REMARK UNBOUND:                 0.896
REMARK  Name = O=C(N/C(=C\c1ccccc1F)C(=O)N1C[C@H]2C[C@H](C1)c1cccc(=O)n1C2)c1ccccc1 ZINC000100392497
REMARK  4 active torsions:
REMARK  status: ('A' for Active; 'I' for Inactive)
REMARK    1  A    between atoms: C_2  and  C_29
REMARK    2  A    between atoms: N_3  and  C_4
REMARK    3  A    between atoms: C_4  and  C_13
REMARK    4  A    between atoms: C_5  and  C_6
REMARK                            x       y       z     vdW  Elec       q    Type
REMARK                         _______ _______ _______ _____ _____    ______ ____
ROOT
ATOM      1  C   UNL     1      -0.045   3.162 -24.117  0.00  0.00    +0.097 C 
ATOM      2  C   UNL     1      -0.551   3.346 -25.298  0.00  0.00    +0.039 C 
ENDROOT
BRANCH   1   3
ATOM      3  C   UNL     1       1.231   2.796 -23.986  0.00  0.00    +0.261 C 
ATOM      4  N   UNL     1       2.166   3.688 -23.588  0.00  0.00    -0.296 N 
ATOM      5  C   UNL     1       1.870   4.972 -23.306  0.00  0.00    +0.113 C 
ATOM      6  C   UNL     1       2.902   5.673 -22.940  0.00  0.00    +0.027 C 
ATOM      7  C   UNL     1       3.699   5.160 -22.932  0.00  0.00    +0.018 C 
ATOM      8  C   UNL     1       4.206   4.369 -23.048  0.00  0.00    +0.054 C 
ATOM      9  C   UNL     1       5.251   4.865 -22.734  0.00  0.00    +0.027 A 
ATOM     10  C   UNL     1       6.458   4.451 -22.627  0.00  0.00    +0.022 A 
ATOM     11  C   UNL     1       7.415   5.289 -22.239  0.00  0.00    +0.007 A 
ATOM     12  C   UNL     1       7.144   6.588 -21.949  0.00  0.00    +0.070 A 
ATOM     13  C   UNL     1       5.912   7.085 -22.038  0.00  0.00    +0.251 A 
ATOM     14  O   UNL     1       5.685   8.337 -21.753  0.00  0.00    -0.268 OA
ATOM     15  N   UNL     1       4.950   6.327 -22.407  0.00  0.00    -0.312 N 
ATOM     16  C   UNL     1       3.430   6.688 -22.582  0.00  0.00    +0.130 C 
ATOM     17  C   UNL     1       3.468   3.369 -23.440  0.00  0.00    +0.117 C 
ATOM     18  O   UNL     1       1.574   1.563 -24.246  0.00  0.00    -0.269 OA
ENDBRANCH   1   3
BRANCH   2  19
ATOM     19  C   UNL     1      -1.808   3.706 -25.434  0.00  0.00    +0.012 A 
ATOM     20  C   UNL     1      -2.588   3.020 -26.222  0.00  0.00    +0.011 A 
ATOM     21  C   UNL     1      -3.839   3.365 -26.368  0.00  0.00    +0.001 A 
ATOM     22  C   UNL     1      -4.307   4.399 -25.723  0.00  0.00    +0.003 A 
ATOM     23  C   UNL     1      -3.527   5.085 -24.934  0.00  0.00    +0.039 A 
ATOM     24  C   UNL     1      -2.276   4.740 -24.788  0.00  0.00    +0.131 A 
ATOM     25  F   UNL     1      -1.497   5.427 -24.000  0.00  0.00    -0.205 F 
ENDBRANCH   2  19
BRANCH   1  28
ATOM     26  O   UNL     1      -1.702   1.282 -23.305  0.00  0.00    -0.270 OA
ATOM     27  C   UNL     1      -1.630   2.408 -22.651  0.00  0.00    +0.248 C 
ATOM     28  N   UNL     1      -0.808   3.342 -23.053  0.00  0.00    -0.277 N 
ATOM     29  H   UNL     1      -0.758   4.191 -22.556  0.00  0.00    +0.155 HD
BRANCH  27  30
ATOM     30  C   UNL     1      -2.386   2.599 -21.588  0.00  0.00    +0.037 A 
ATOM     31  C   UNL     1      -3.347   1.759 -21.318  0.00  0.00    +0.013 A 
ATOM     32  C   UNL     1      -4.100   1.942 -20.266  0.00  0.00    +0.001 A 
ATOM     33  C   UNL     1      -3.889   2.968 -19.486  0.00  0.00    +0.000 A 
ATOM     34  C   UNL     1      -2.928   3.807 -19.755  0.00  0.00    +0.001 A 
ATOM     35  C   UNL     1      -2.175   3.625 -20.806  0.00  0.00    +0.013 A 
ENDBRANCH  27  30
ENDBRANCH   1  28
TORSDOF 4
ENDMDL
