MODEL 1
REMARK VINA RESULT:   -12.484      0.000      0.000
REMARK INTER + INTRA:         -15.211
REMARK INTER:                 -14.354
REMARK INTRA:                  -0.858
REMARK UNBOUND:                -0.538
REMARK  Name = COc1ccc2c(c1Oc1ccccc1)[C@@]13CC=CC=C1[C@H](C2)NCC3                   ZINC000100393743
REMARK  4 active torsions:
REMARK  status: ('A' for Active; 'I' for Inactive)
REMARK    1  A    between atoms: C_1  and  O_2
REMARK    2  A    between atoms: O_2  and  C_3
REMARK    3  A    between atoms: C_8  and  O_9
REMARK    4  A    between atoms: O_9  and  C_10
REMARK                            x       y       z     vdW  Elec       q    Type
REMARK                         _______ _______ _______ _____ _____    ______ ____
ROOT
ATOM      1  C   UNL     1      -2.163   2.686 -21.439  0.00  0.00    +0.162 A 
ATOM      2  C   UNL     1      -3.169   2.804 -20.695  0.00  0.00    +0.050 A 
ATOM      3  C   UNL     1      -4.270   3.121 -21.208  0.00  0.00    +0.008 A 
ATOM      4  C   UNL     1      -4.341   3.340 -22.639  0.00  0.00    -0.034 A 
ATOM      5  C   UNL     1      -3.465   3.226 -23.203  0.00  0.00    +0.013 A 
ATOM      6  C   UNL     1      -3.295   3.320 -24.125  0.00  0.00    +0.034 C 
ATOM      7  C   UNL     1      -2.221   3.175 -24.785  0.00  0.00    +0.043 C 
ATOM      8  C   UNL     1      -2.224   3.358 -26.065  0.00  0.00    -0.026 C 
ATOM      9  C   UNL     1      -3.334   3.693 -26.688  0.00  0.00    -0.004 C 
ATOM     10  C   UNL     1      -4.456   3.850 -26.043  0.00  0.00    +0.005 C 
ATOM     11  C   UNL     1      -3.420   3.110 -22.459  0.00  0.00    +0.067 C 
ATOM     12  C   UNL     1      -4.735   3.306 -21.779  0.00  0.00    +0.131 C 
ATOM     13  N   UNL     1      -5.676   3.610 -22.446  0.00  0.00    +0.233 N 
ATOM     14  H   UNL     1      -5.880   4.555 -22.122  0.00  0.00    +0.202 HD
ATOM     15  H   UNL     1      -6.378   2.883 -22.301  0.00  0.00    +0.202 HD
ATOM     16  C   UNL     1      -5.549   3.801 -23.992  0.00  0.00    +0.095 C 
ATOM     17  C   UNL     1      -4.490   3.680 -24.794  0.00  0.00    -0.011 C 
ATOM     18  C   UNL     1      -5.396   3.639 -23.086  0.00  0.00    +0.094 C 
ATOM     19  C   UNL     1      -2.296   2.894 -22.695  0.00  0.00    +0.174 A 
ENDROOT
BRANCH   1  21
ATOM     20  C   UNL     1      -0.436   1.219 -21.213  0.00  0.00    +0.277 C 
ATOM     21  O   UNL     1      -0.964   2.358 -21.006  0.00  0.00    -0.491 OA
ENDBRANCH   1  21
BRANCH  19  22
ATOM     22  O   UNL     1      -1.240   2.817 -23.803  0.00  0.00    -0.452 OA
BRANCH  22  23
ATOM     23  C   UNL     1       0.042   3.341 -23.910  0.00  0.00    +0.129 A 
ATOM     24  C   UNL     1       0.202   4.553 -23.518  0.00  0.00    +0.046 A 
ATOM     25  C   UNL     1       1.362   5.098 -23.590  0.00  0.00    +0.004 A 
ATOM     26  C   UNL     1       2.355   4.436 -24.051  0.00  0.00    +0.000 A 
ATOM     27  C   UNL     1       2.196   3.224 -24.444  0.00  0.00    +0.004 A 
ATOM     28  C   UNL     1       1.038   2.677 -24.372  0.00  0.00    +0.046 A 
ENDBRANCH  22  23
ENDBRANCH  19  22
TORSDOF 3
ENDMDL
MODEL 2
REMARK VINA RESULT:   -11.056      1.397      3.463
REMARK INTER + INTRA:         -13.533
REMARK INTER:                 -13.039
REMARK INTRA:                  -0.494
REMARK UNBOUND:                -0.538
REMARK  Name = COc1ccc2c(c1Oc1ccccc1)[C@@]13CC=CC=C1[C@H](C2)NCC3                   ZINC000100393743
REMARK  4 active torsions:
REMARK  status: ('A' for Active; 'I' for Inactive)
REMARK    1  A    between atoms: C_1  and  O_2
REMARK    2  A    between atoms: O_2  and  C_3
REMARK    3  A    between atoms: C_8  and  O_9
REMARK    4  A    between atoms: O_9  and  C_10
REMARK                            x       y       z     vdW  Elec       q    Type
REMARK                         _______ _______ _______ _____ _____    ______ ____
ROOT
ATOM      1  C   UNL     1      -1.277   3.357 -25.257  0.00  0.00    +0.162 A 
ATOM      2  C   UNL     1      -2.147   3.492 -26.154  0.00  0.00    +0.050 A 
ATOM      3  C   UNL     1      -3.349   3.619 -25.820  0.00  0.00    +0.008 A 
ATOM      4  C   UNL     1      -3.692   3.605 -24.412  0.00  0.00    -0.034 A 
ATOM      5  C   UNL     1      -2.919   3.489 -23.713  0.00  0.00    +0.013 A 
ATOM      6  C   UNL     1      -2.924   3.454 -22.771  0.00  0.00    +0.034 C 
ATOM      7  C   UNL     1      -1.970   3.312 -21.946  0.00  0.00    +0.043 C 
ATOM      8  C   UNL     1      -2.216   3.292 -20.678  0.00  0.00    -0.026 C 
ATOM      9  C   UNL     1      -3.449   3.418 -20.235  0.00  0.00    -0.004 C 
ATOM     10  C   UNL     1      -4.454   3.566 -21.053  0.00  0.00    +0.005 C 
ATOM     11  C   UNL     1      -2.733   3.495 -24.444  0.00  0.00    +0.067 C 
ATOM     12  C   UNL     1      -3.925   3.667 -25.327  0.00  0.00    +0.131 C 
ATOM     13  N   UNL     1      -4.997   3.772 -24.814  0.00  0.00    +0.233 N 
ATOM     14  H   UNL     1      -5.467   2.916 -25.109  0.00  0.00    +0.202 HD
ATOM     15  H   UNL     1      -5.377   4.667 -25.123  0.00  0.00    +0.202 HD
ATOM     16  C   UNL     1      -5.162   3.732 -23.260  0.00  0.00    +0.095 C 
ATOM     17  C   UNL     1      -4.251   3.590 -22.297  0.00  0.00    -0.011 C 
ATOM     18  C   UNL     1      -4.837   3.727 -24.134  0.00  0.00    +0.094 C 
ATOM     19  C   UNL     1      -1.649   3.354 -24.031  0.00  0.00    +0.174 A 
ENDROOT
BRANCH   1  21
ATOM     20  C   UNL     1       0.757   4.177 -25.871  0.00  0.00    +0.277 C 
ATOM     21  O   UNL     1       0.010   3.217 -25.497  0.00  0.00    -0.491 OA
ENDBRANCH   1  21
BRANCH  19  22
ATOM     22  O   UNL     1      -0.797   3.207 -22.766  0.00  0.00    -0.452 OA
BRANCH  22  23
ATOM     23  C   UNL     1       0.453   2.648 -22.541  0.00  0.00    +0.129 A 
ATOM     24  C   UNL     1       1.467   3.418 -22.708  0.00  0.00    +0.046 A 
ATOM     25  C   UNL     1       2.652   2.963 -22.516  0.00  0.00    +0.004 A 
ATOM     26  C   UNL     1       2.823   1.747 -22.159  0.00  0.00    +0.000 A 
ATOM     27  C   UNL     1       1.810   0.975 -21.992  0.00  0.00    +0.004 A 
ATOM     28  C   UNL     1       0.625   1.427 -22.183  0.00  0.00    +0.046 A 
ENDBRANCH  22  23
ENDBRANCH  19  22
TORSDOF 3
ENDMDL
MODEL 3
REMARK VINA RESULT:   -10.997      0.975      3.457
REMARK INTER + INTRA:         -13.463
REMARK INTER:                 -12.866
REMARK INTRA:                  -0.597
REMARK UNBOUND:                -0.538
REMARK  Name = COc1ccc2c(c1Oc1ccccc1)[C@@]13CC=CC=C1[C@H](C2)NCC3                   ZINC000100393743
REMARK  4 active torsions:
REMARK  status: ('A' for Active; 'I' for Inactive)
REMARK    1  A    between atoms: C_1  and  O_2
REMARK    2  A    between atoms: O_2  and  C_3
REMARK    3  A    between atoms: C_8  and  O_9
REMARK    4  A    between atoms: O_9  and  C_10
REMARK                            x       y       z     vdW  Elec       q    Type
REMARK                         _______ _______ _______ _____ _____    ______ ____
ROOT
ATOM      1  C   UNL     1      -3.490   3.713 -25.682  0.00  0.00    +0.162 A 
ATOM      2  C   UNL     1      -4.686   4.087 -25.587  0.00  0.00    +0.050 A 
ATOM      3  C   UNL     1      -5.257   4.015 -24.471  0.00  0.00    +0.008 A 
ATOM      4  C   UNL     1      -4.518   3.504 -23.335  0.00  0.00    -0.034 A 
ATOM      5  C   UNL     1      -3.522   3.209 -23.481  0.00  0.00    +0.013 A 
ATOM      6  C   UNL     1      -2.878   2.857 -22.890  0.00  0.00    +0.034 C 
ATOM      7  C   UNL     1      -1.675   2.507 -23.094  0.00  0.00    +0.043 C 
ATOM      8  C   UNL     1      -0.967   2.044 -22.117  0.00  0.00    -0.026 C 
ATOM      9  C   UNL     1      -1.484   1.932 -20.912  0.00  0.00    -0.004 C 
ATOM     10  C   UNL     1      -2.716   2.282 -20.665  0.00  0.00    +0.005 C 
ATOM     11  C   UNL     1      -3.901   3.473 -24.077  0.00  0.00    +0.067 C 
ATOM     12  C   UNL     1      -5.302   3.856 -23.730  0.00  0.00    +0.131 C 
ATOM     13  N   UNL     1      -5.664   3.712 -22.603  0.00  0.00    +0.233 N 
ATOM     14  H   UNL     1      -6.366   2.977 -22.689  0.00  0.00    +0.202 HD
ATOM     15  H   UNL     1      -5.959   4.631 -22.275  0.00  0.00    +0.202 HD
ATOM     16  C   UNL     1      -4.705   3.138 -21.508  0.00  0.00    +0.095 C 
ATOM     17  C   UNL     1      -3.436   2.738 -21.594  0.00  0.00    -0.011 C 
ATOM     18  C   UNL     1      -5.090   3.451 -22.299  0.00  0.00    +0.094 C 
ATOM     19  C   UNL     1      -2.895   3.272 -24.637  0.00  0.00    +0.174 A 
ENDROOT
BRANCH   1  21
ATOM     20  C   UNL     1      -3.288   3.436 -27.933  0.00  0.00    +0.277 C 
ATOM     21  O   UNL     1      -2.797   3.746 -26.801  0.00  0.00    -0.491 OA
ENDBRANCH   1  21
BRANCH  19  22
ATOM     22  O   UNL     1      -1.457   2.761 -24.489  0.00  0.00    -0.452 OA
BRANCH  22  23
ATOM     23  C   UNL     1      -0.247   3.417 -24.310  0.00  0.00    +0.129 A 
ATOM     24  C   UNL     1       0.813   2.767 -24.628  0.00  0.00    +0.046 A 
ATOM     25  C   UNL     1       1.965   3.315 -24.488  0.00  0.00    +0.004 A 
ATOM     26  C   UNL     1       2.057   4.507 -24.032  0.00  0.00    +0.000 A 
ATOM     27  C   UNL     1       0.997   5.160 -23.713  0.00  0.00    +0.004 A 
ATOM     28  C   UNL     1      -0.155   4.613 -23.853  0.00  0.00    +0.046 A 
ENDBRANCH  22  23
ENDBRANCH  19  22
TORSDOF 3
ENDMDL
MODEL 4
REMARK VINA RESULT:   -10.292      2.320      6.069
REMARK INTER + INTRA:         -12.635
REMARK INTER:                 -11.482
REMARK INTRA:                  -1.153
REMARK UNBOUND:                -0.538
REMARK  Name = COc1ccc2c(c1Oc1ccccc1)[C@@]13CC=CC=C1[C@H](C2)NCC3                   ZINC000100393743
REMARK  4 active torsions:
REMARK  status: ('A' for Active; 'I' for Inactive)
REMARK    1  A    between atoms: C_1  and  O_2
REMARK    2  A    between atoms: O_2  and  C_3
REMARK    3  A    between atoms: C_8  and  O_9
REMARK    4  A    between atoms: O_9  and  C_10
REMARK                            x       y       z     vdW  Elec       q    Type
REMARK                         _______ _______ _______ _____ _____    ______ ____
ROOT
ATOM      1  C   UNL     1      -0.977   3.287 -24.851  0.00  0.00    +0.162 A 
ATOM      2  C   UNL     1      -0.194   3.770 -25.706  0.00  0.00    +0.050 A 
ATOM      3  C   UNL     1       1.039   3.763 -25.472  0.00  0.00    +0.008 A 
ATOM      4  C   UNL     1       1.515   3.198 -24.225  0.00  0.00    -0.034 A 
ATOM      5  C   UNL     1       0.809   2.811 -23.554  0.00  0.00    +0.013 A 
ATOM      6  C   UNL     1       0.902   2.407 -22.708  0.00  0.00    +0.034 C 
ATOM      7  C   UNL     1       0.028   1.945 -21.912  0.00  0.00    +0.043 C 
ATOM      8  C   UNL     1       0.393   1.429 -20.785  0.00  0.00    -0.026 C 
ATOM      9  C   UNL     1       1.667   1.379 -20.456  0.00  0.00    -0.004 C 
ATOM     10  C   UNL     1       2.593   1.844 -21.248  0.00  0.00    +0.005 C 
ATOM     11  C   UNL     1       0.554   3.103 -24.201  0.00  0.00    +0.067 C 
ATOM     12  C   UNL     1       1.661   3.617 -25.061  0.00  0.00    +0.131 C 
ATOM     13  N   UNL     1       2.780   3.518 -24.660  0.00  0.00    +0.233 N 
ATOM     14  H   UNL     1       3.048   4.492 -24.516  0.00  0.00    +0.202 HD
ATOM     15  H   UNL     1       3.288   2.971 -25.356  0.00  0.00    +0.202 HD
ATOM     16  C   UNL     1       3.092   2.870 -23.272  0.00  0.00    +0.095 C 
ATOM     17  C   UNL     1       2.273   2.354 -22.355  0.00  0.00    -0.011 C 
ATOM     18  C   UNL     1       2.685   3.209 -24.040  0.00  0.00    +0.094 C 
ATOM     19  C   UNL     1      -0.490   2.803 -23.769  0.00  0.00    +0.174 A 
ENDROOT
BRANCH   1  21
ATOM     20  C   UNL     1      -3.024   4.280 -24.965  0.00  0.00    +0.277 C 
ATOM     21  O   UNL     1      -2.285   3.244 -24.994  0.00  0.00    -0.491 OA
ENDBRANCH   1  21
BRANCH  19  22
ATOM     22  O   UNL     1      -1.221   2.164 -22.584  0.00  0.00    -0.452 OA
BRANCH  22  23
ATOM     23  C   UNL     1      -2.240   2.620 -21.758  0.00  0.00    +0.129 A 
ATOM     24  C   UNL     1      -2.147   3.831 -21.344  0.00  0.00    +0.046 A 
ATOM     25  C   UNL     1      -3.056   4.315 -20.578  0.00  0.00    +0.004 A 
ATOM     26  C   UNL     1      -4.051   3.592 -20.227  0.00  0.00    +0.000 A 
ATOM     27  C   UNL     1      -4.146   2.380 -20.641  0.00  0.00    +0.004 A 
ATOM     28  C   UNL     1      -3.238   1.895 -21.407  0.00  0.00    +0.046 A 
ENDBRANCH  22  23
ENDBRANCH  19  22
TORSDOF 3
ENDMDL
MODEL 5
REMARK VINA RESULT:   -10.172      2.054      4.951
REMARK INTER + INTRA:         -12.494
REMARK INTER:                 -11.761
REMARK INTRA:                  -0.734
REMARK UNBOUND:                -0.538
REMARK  Name = COc1ccc2c(c1Oc1ccccc1)[C@@]13CC=CC=C1[C@H](C2)NCC3                   ZINC000100393743
REMARK  4 active torsions:
REMARK  status: ('A' for Active; 'I' for Inactive)
REMARK    1  A    between atoms: C_1  and  O_2
REMARK    2  A    between atoms: O_2  and  C_3
REMARK    3  A    between atoms: C_8  and  O_9
REMARK    4  A    between atoms: O_9  and  C_10
REMARK                            x       y       z     vdW  Elec       q    Type
REMARK                         _______ _______ _______ _____ _____    ______ ____
ROOT
ATOM      1  C   UNL     1      -1.639   2.440 -21.446  0.00  0.00    +0.162 A 
ATOM      2  C   UNL     1      -1.011   1.706 -20.643  0.00  0.00    +0.050 A 
ATOM      3  C   UNL     1       0.167   1.373 -20.920  0.00  0.00    +0.008 A 
ATOM      4  C   UNL     1       0.760   1.846 -22.155  0.00  0.00    -0.034 A 
ATOM      5  C   UNL     1       0.181   2.456 -22.782  0.00  0.00    +0.013 A 
ATOM      6  C   UNL     1       0.370   2.862 -23.611  0.00  0.00    +0.034 C 
ATOM      7  C   UNL     1      -0.351   3.598 -24.352  0.00  0.00    +0.043 C 
ATOM      8  C   UNL     1       0.125   4.049 -25.466  0.00  0.00    -0.026 C 
ATOM      9  C   UNL     1       1.351   3.751 -25.837  0.00  0.00    -0.004 C 
ATOM     10  C   UNL     1       2.121   2.997 -25.101  0.00  0.00    +0.005 C 
ATOM     11  C   UNL     1      -0.134   2.213 -22.141  0.00  0.00    +0.067 C 
ATOM     12  C   UNL     1       0.796   1.357 -21.345  0.00  0.00    +0.131 C 
ATOM     13  N   UNL     1       1.887   1.153 -21.780  0.00  0.00    +0.233 N 
ATOM     14  H   UNL     1       1.861   0.153 -21.980  0.00  0.00    +0.202 HD
ATOM     15  H   UNL     1       2.545   1.492 -21.079  0.00  0.00    +0.202 HD
ATOM     16  C   UNL     1       2.344   1.760 -23.147  0.00  0.00    +0.095 C 
ATOM     17  C   UNL     1       1.690   2.539 -24.009  0.00  0.00    -0.011 C 
ATOM     18  C   UNL     1       1.873   1.510 -22.382  0.00  0.00    +0.094 C 
ATOM     19  C   UNL     1      -1.056   2.823 -22.520  0.00  0.00    +0.174 A 
ENDROOT
BRANCH   1  21
ATOM     20  C   UNL     1      -3.203   3.678 -20.346  0.00  0.00    +0.277 C 
ATOM     21  O   UNL     1      -2.876   2.848 -21.254  0.00  0.00    -0.491 OA
ENDBRANCH   1  21
BRANCH  19  22
ATOM     22  O   UNL     1      -1.596   3.709 -23.648  0.00  0.00    -0.452 OA
BRANCH  22  23
ATOM     23  C   UNL     1      -2.749   3.643 -24.417  0.00  0.00    +0.129 A 
ATOM     24  C   UNL     1      -3.739   4.367 -24.034  0.00  0.00    +0.046 A 
ATOM     25  C   UNL     1      -4.835   4.352 -24.701  0.00  0.00    +0.004 A 
ATOM     26  C   UNL     1      -4.942   3.619 -25.745  0.00  0.00    +0.000 A 
ATOM     27  C   UNL     1      -3.953   2.895 -26.129  0.00  0.00    +0.004 A 
ATOM     28  C   UNL     1      -2.857   2.908 -25.463  0.00  0.00    +0.046 A 
ENDBRANCH  22  23
ENDBRANCH  19  22
TORSDOF 3
ENDMDL
