MODEL 1
REMARK VINA RESULT:    -9.350      0.000      0.000
REMARK INTER + INTRA:         -11.497
REMARK INTER:                 -12.188
REMARK INTRA:                   0.690
REMARK UNBOUND:                 1.405
REMARK  Name = CC(C)=CCC1=C(O)[C@](O)(CC=C(C)C)C(O)=C(C(=O)CC(C)C)C1=O              ZINC000100151010
REMARK  13 active torsions:
REMARK  status: ('A' for Active; 'I' for Inactive)
REMARK    1  A    between atoms: C_1  and  C_2
REMARK    2  A    between atoms: C_2  and  C_3
REMARK    3  A    between atoms: C_4  and  C_5
REMARK    4  A    between atoms: C_5  and  C_6
REMARK    5  A    between atoms: C_9  and  O_10
REMARK    6  A    between atoms: C_9  and  C_11
REMARK    7  A    between atoms: C_11  and  C_12
REMARK    8  A    between atoms: C_13  and  C_14
REMARK    9  A    between atoms: C_13  and  C_15
REMARK   10  A    between atoms: C_19  and  C_21
REMARK   11  A    between atoms: C_21  and  C_22
REMARK   12  A    between atoms: C_22  and  C_23
REMARK   13  A    between atoms: C_22  and  C_24
REMARK                            x       y       z     vdW  Elec       q    Type
REMARK                         _______ _______ _______ _____ _____    ______ ____
ROOT
ATOM      1  C   UNL     1       1.418   2.981 -23.786  0.00  0.00    +0.026 C 
ATOM      2  C   UNL     1       0.732   3.383 -24.814  0.00  0.00    +0.206 C 
ATOM      3  C   UNL     1      -0.567   3.334 -24.788  0.00  0.00    +0.201 C 
ATOM      4  C   UNL     1      -1.179   2.883 -23.734  0.00  0.00    +0.235 C 
ATOM      5  C   UNL     1      -0.494   2.481 -22.706  0.00  0.00    -0.109 C 
ATOM      6  C   UNL     1      -1.106   2.030 -21.652  0.00  0.00    -0.117 C 
ATOM      7  O   UNL     1      -0.420   1.628 -20.623  0.00  0.00    -0.826 OA
ATOM      8  O   UNL     1      -2.479   2.834 -23.708  0.00  0.00    -0.280 OA
ATOM      9  O   UNL     1       1.345   3.835 -25.869  0.00  0.00    -0.288 OA
ATOM     10  C   UNL     1       0.806   2.530 -22.732  0.00  0.00    -0.218 C 
ATOM     11  O   UNL     1       1.492   2.128 -21.703  0.00  0.00    -0.791 OA
ENDROOT
BRANCH   3  12
ATOM     12  O   UNL     1      -0.383   3.828 -25.977  0.00  0.00    -0.373 OA
ATOM     13  H   UNL     1      -0.961   4.596 -26.101  0.00  0.00    +0.211 HD
ENDBRANCH   3  12
BRANCH   6  14
ATOM     14  C   UNL     1      -2.405   1.981 -21.625  0.00  0.00    +0.024 C 
BRANCH  14  15
ATOM     15  C   UNL     1      -3.067   2.722 -20.787  0.00  0.00    -0.014 C 
ATOM     16  C   UNL     1      -2.584   3.869 -20.413  0.00  0.00    +0.007 C 
ATOM     17  C   UNL     1      -4.210   2.315 -20.323  0.00  0.00    +0.007 C 
ENDBRANCH  14  15
ENDBRANCH   6  14
BRANCH   3  18
ATOM     18  C   UNL     1      -1.802   3.457 -25.175  0.00  0.00    +0.079 C 
BRANCH  18  19
ATOM     19  C   UNL     1      -2.086   3.483 -26.443  0.00  0.00    -0.024 C 
ATOM     20  C   UNL     1      -3.327   3.497 -26.831  0.00  0.00    -0.080 C 
ATOM     21  C   UNL     1      -4.283   3.485 -25.951  0.00  0.00    +0.038 C 
ATOM     22  C   UNL     1      -3.611   3.524 -28.100  0.00  0.00    +0.038 C 
ENDBRANCH  18  19
ENDBRANCH   3  18
BRANCH   1  23
ATOM     23  C   UNL     1       2.718   3.030 -23.812  0.00  0.00    +0.073 C 
BRANCH  23  26
ATOM     24  C   UNL     1       5.236   5.141 -22.800  0.00  0.00    +0.038 C 
ATOM     25  C   UNL     1       4.618   4.070 -23.201  0.00  0.00    -0.079 C 
ATOM     26  C   UNL     1       3.336   4.102 -23.412  0.00  0.00    -0.023 C 
ATOM     27  C   UNL     1       5.283   2.969 -23.390  0.00  0.00    +0.038 C 
ENDBRANCH  23  26
ENDBRANCH   1  23
TORSDOF 7
ENDMDL
MODEL 2
REMARK VINA RESULT:    -8.660      2.173      6.485
REMARK INTER + INTRA:         -10.546
REMARK INTER:                 -11.315
REMARK INTRA:                   0.769
REMARK UNBOUND:                 1.405
REMARK  Name = CC(C)=CCC1=C(O)[C@](O)(CC=C(C)C)C(O)=C(C(=O)CC(C)C)C1=O              ZINC000100151010
REMARK  13 active torsions:
REMARK  status: ('A' for Active; 'I' for Inactive)
REMARK    1  A    between atoms: C_1  and  C_2
REMARK    2  A    between atoms: C_2  and  C_3
REMARK    3  A    between atoms: C_4  and  C_5
REMARK    4  A    between atoms: C_5  and  C_6
REMARK    5  A    between atoms: C_9  and  O_10
REMARK    6  A    between atoms: C_9  and  C_11
REMARK    7  A    between atoms: C_11  and  C_12
REMARK    8  A    between atoms: C_13  and  C_14
REMARK    9  A    between atoms: C_13  and  C_15
REMARK   10  A    between atoms: C_19  and  C_21
REMARK   11  A    between atoms: C_21  and  C_22
REMARK   12  A    between atoms: C_22  and  C_23
REMARK   13  A    between atoms: C_22  and  C_24
REMARK                            x       y       z     vdW  Elec       q    Type
REMARK                         _______ _______ _______ _____ _____    ______ ____
ROOT
ATOM      1  C   UNL     1       0.028   3.579 -23.476  0.00  0.00    +0.026 C 
ATOM      2  C   UNL     1       0.650   4.720 -23.461  0.00  0.00    +0.206 C 
ATOM      3  C   UNL     1       1.927   4.761 -23.226  0.00  0.00    +0.201 C 
ATOM      4  C   UNL     1       2.583   3.660 -23.006  0.00  0.00    +0.235 C 
ATOM      5  C   UNL     1       1.962   2.520 -23.021  0.00  0.00    -0.109 C 
ATOM      6  C   UNL     1       2.617   1.419 -22.801  0.00  0.00    -0.117 C 
ATOM      7  O   UNL     1       1.996   0.277 -22.816  0.00  0.00    -0.826 OA
ATOM      8  O   UNL     1       3.862   3.702 -22.770  0.00  0.00    -0.280 OA
ATOM      9  O   UNL     1      -0.006   5.822 -23.681  0.00  0.00    -0.288 OA
ATOM     10  C   UNL     1       0.683   2.478 -23.256  0.00  0.00    -0.218 C 
ATOM     11  O   UNL     1       0.061   1.337 -23.271  0.00  0.00    -0.791 OA
ENDROOT
BRANCH   3  12
ATOM     12  O   UNL     1       1.686   6.029 -23.383  0.00  0.00    -0.373 OA
ATOM     13  H   UNL     1       2.309   6.545 -22.850  0.00  0.00    +0.211 HD
ENDBRANCH   3  12
BRANCH   6  14
ATOM     14  C   UNL     1       3.896   1.459 -22.565  0.00  0.00    +0.024 C 
BRANCH  14  15
ATOM     15  C   UNL     1       4.398   0.774 -21.581  0.00  0.00    -0.014 C 
ATOM     16  C   UNL     1       3.658   0.471 -20.556  0.00  0.00    +0.007 C 
ATOM     17  C   UNL     1       5.639   0.391 -21.623  0.00  0.00    +0.007 C 
ENDBRANCH  14  15
ENDBRANCH   6  14
BRANCH   3  18
ATOM     18  C   UNL     1       3.122   5.243 -23.045  0.00  0.00    +0.079 C 
BRANCH  18  19
ATOM     19  C   UNL     1       3.274   6.451 -22.593  0.00  0.00    -0.024 C 
ATOM     20  C   UNL     1       4.452   6.869 -22.237  0.00  0.00    -0.080 C 
ATOM     21  C   UNL     1       5.479   6.078 -22.334  0.00  0.00    +0.038 C 
ATOM     22  C   UNL     1       4.605   8.078 -21.784  0.00  0.00    +0.038 C 
ENDBRANCH  18  19
ENDBRANCH   3  18
BRANCH   1  23
ATOM     23  C   UNL     1      -1.251   3.539 -23.711  0.00  0.00    +0.073 C 
BRANCH  23  26
ATOM     24  C   UNL     1      -3.383   3.484 -26.408  0.00  0.00    +0.038 C 
ATOM     25  C   UNL     1      -2.950   3.587 -25.187  0.00  0.00    -0.079 C 
ATOM     26  C   UNL     1      -1.684   3.436 -24.933  0.00  0.00    -0.023 C 
ATOM     27  C   UNL     1      -3.783   3.840 -24.221  0.00  0.00    +0.038 C 
ENDBRANCH  23  26
ENDBRANCH   1  23
TORSDOF 7
ENDMDL
MODEL 3
REMARK VINA RESULT:    -8.646      2.230      6.444
REMARK INTER + INTRA:         -10.526
REMARK INTER:                 -11.839
REMARK INTRA:                   1.313
REMARK UNBOUND:                 1.405
REMARK  Name = CC(C)=CCC1=C(O)[C@](O)(CC=C(C)C)C(O)=C(C(=O)CC(C)C)C1=O              ZINC000100151010
REMARK  13 active torsions:
REMARK  status: ('A' for Active; 'I' for Inactive)
REMARK    1  A    between atoms: C_1  and  C_2
REMARK    2  A    between atoms: C_2  and  C_3
REMARK    3  A    between atoms: C_4  and  C_5
REMARK    4  A    between atoms: C_5  and  C_6
REMARK    5  A    between atoms: C_9  and  O_10
REMARK    6  A    between atoms: C_9  and  C_11
REMARK    7  A    between atoms: C_11  and  C_12
REMARK    8  A    between atoms: C_13  and  C_14
REMARK    9  A    between atoms: C_13  and  C_15
REMARK   10  A    between atoms: C_19  and  C_21
REMARK   11  A    between atoms: C_21  and  C_22
REMARK   12  A    between atoms: C_22  and  C_23
REMARK   13  A    between atoms: C_22  and  C_24
REMARK                            x       y       z     vdW  Elec       q    Type
REMARK                         _______ _______ _______ _____ _____    ______ ____
ROOT
ATOM      1  C   UNL     1      -0.024   2.956 -23.001  0.00  0.00    +0.026 C 
ATOM      2  C   UNL     1       0.457   4.145 -23.213  0.00  0.00    +0.206 C 
ATOM      3  C   UNL     1       1.740   4.346 -23.160  0.00  0.00    +0.201 C 
ATOM      4  C   UNL     1       2.542   3.358 -22.896  0.00  0.00    +0.235 C 
ATOM      5  C   UNL     1       2.062   2.170 -22.684  0.00  0.00    -0.109 C 
ATOM      6  C   UNL     1       2.865   1.182 -22.420  0.00  0.00    -0.117 C 
ATOM      7  O   UNL     1       2.384  -0.008 -22.208  0.00  0.00    -0.826 OA
ATOM      8  O   UNL     1       3.826   3.560 -22.843  0.00  0.00    -0.280 OA
ATOM      9  O   UNL     1      -0.346   5.134 -23.477  0.00  0.00    -0.288 OA
ATOM     10  C   UNL     1       0.778   1.968 -22.737  0.00  0.00    -0.218 C 
ATOM     11  O   UNL     1       0.298   0.779 -22.525  0.00  0.00    -0.791 OA
ENDROOT
BRANCH   3  12
ATOM     12  O   UNL     1       1.334   5.549 -23.440  0.00  0.00    -0.373 OA
ATOM     13  H   UNL     1       1.118   5.606 -24.383  0.00  0.00    +0.211 HD
ENDBRANCH   3  12
BRANCH   6  14
ATOM     14  C   UNL     1       4.148   1.382 -22.367  0.00  0.00    +0.024 C 
BRANCH  14  15
ATOM     15  C   UNL     1       4.791   1.192 -21.253  0.00  0.00    -0.014 C 
ATOM     16  C   UNL     1       4.890  -0.005 -20.756  0.00  0.00    +0.007 C 
ATOM     17  C   UNL     1       5.333   2.199 -20.637  0.00  0.00    +0.007 C 
ENDBRANCH  14  15
ENDBRANCH   6  14
BRANCH   3  18
ATOM     18  C   UNL     1       2.883   4.965 -23.205  0.00  0.00    +0.079 C 
BRANCH  18  19
ATOM     19  C   UNL     1       2.972   6.196 -22.796  0.00  0.00    -0.024 C 
ATOM     20  C   UNL     1       4.118   6.674 -22.414  0.00  0.00    -0.080 C 
ATOM     21  C   UNL     1       5.177   5.920 -22.440  0.00  0.00    +0.038 C 
ATOM     22  C   UNL     1       4.207   7.905 -22.006  0.00  0.00    +0.038 C 
ENDBRANCH  18  19
ENDBRANCH   3  18
BRANCH   1  23
ATOM     23  C   UNL     1      -1.308   2.756 -23.054  0.00  0.00    +0.073 C 
BRANCH  23  26
ATOM     24  C   UNL     1      -3.970   3.029 -20.895  0.00  0.00    +0.038 C 
ATOM     25  C   UNL     1      -3.270   3.048 -21.990  0.00  0.00    -0.079 C 
ATOM     26  C   UNL     1      -2.008   2.737 -21.959  0.00  0.00    -0.023 C 
ATOM     27  C   UNL     1      -3.831   3.378 -23.115  0.00  0.00    +0.038 C 
ENDBRANCH  23  26
ENDBRANCH   1  23
TORSDOF 7
ENDMDL
MODEL 4
REMARK VINA RESULT:    -7.723      0.773      4.288
REMARK INTER + INTRA:          -9.252
REMARK INTER:                 -11.004
REMARK INTRA:                   1.752
REMARK UNBOUND:                 1.405
REMARK  Name = CC(C)=CCC1=C(O)[C@](O)(CC=C(C)C)C(O)=C(C(=O)CC(C)C)C1=O              ZINC000100151010
REMARK  13 active torsions:
REMARK  status: ('A' for Active; 'I' for Inactive)
REMARK    1  A    between atoms: C_1  and  C_2
REMARK    2  A    between atoms: C_2  and  C_3
REMARK    3  A    between atoms: C_4  and  C_5
REMARK    4  A    between atoms: C_5  and  C_6
REMARK    5  A    between atoms: C_9  and  O_10
REMARK    6  A    between atoms: C_9  and  C_11
REMARK    7  A    between atoms: C_11  and  C_12
REMARK    8  A    between atoms: C_13  and  C_14
REMARK    9  A    between atoms: C_13  and  C_15
REMARK   10  A    between atoms: C_19  and  C_21
REMARK   11  A    between atoms: C_21  and  C_22
REMARK   12  A    between atoms: C_22  and  C_23
REMARK   13  A    between atoms: C_22  and  C_24
REMARK                            x       y       z     vdW  Elec       q    Type
REMARK                         _______ _______ _______ _____ _____    ______ ____
ROOT
ATOM      1  C   UNL     1       1.271   2.307 -23.633  0.00  0.00    +0.026 C 
ATOM      2  C   UNL     1       0.668   1.979 -22.529  0.00  0.00    +0.206 C 
ATOM      3  C   UNL     1      -0.610   2.179 -22.402  0.00  0.00    +0.201 C 
ATOM      4  C   UNL     1      -1.285   2.706 -23.379  0.00  0.00    +0.235 C 
ATOM      5  C   UNL     1      -0.683   3.034 -24.483  0.00  0.00    -0.109 C 
ATOM      6  C   UNL     1      -1.359   3.562 -25.460  0.00  0.00    -0.117 C 
ATOM      7  O   UNL     1      -0.757   3.890 -26.564  0.00  0.00    -0.826 OA
ATOM      8  O   UNL     1      -2.564   2.906 -23.251  0.00  0.00    -0.280 OA
ATOM      9  O   UNL     1       1.345   1.451 -21.551  0.00  0.00    -0.288 OA
ATOM     10  C   UNL     1       0.596   2.834 -24.610  0.00  0.00    -0.218 C 
ATOM     11  O   UNL     1       1.198   3.162 -25.715  0.00  0.00    -0.791 OA
ENDROOT
BRANCH   3  12
ATOM     12  O   UNL     1      -0.346   1.658 -21.240  0.00  0.00    -0.373 OA
ATOM     13  H   UNL     1      -0.290   2.361 -20.575  0.00  0.00    +0.211 HD
ENDBRANCH   3  12
BRANCH   6  14
ATOM     14  C   UNL     1      -2.637   3.762 -25.333  0.00  0.00    +0.024 C 
BRANCH  14  15
ATOM     15  C   UNL     1      -3.447   3.416 -26.289  0.00  0.00    -0.014 C 
ATOM     16  C   UNL     1      -3.088   3.562 -27.530  0.00  0.00    +0.007 C 
ATOM     17  C   UNL     1      -4.616   2.923 -26.004  0.00  0.00    +0.007 C 
ENDBRANCH  14  15
ENDBRANCH   6  14
BRANCH   3  18
ATOM     18  C   UNL     1      -1.797   2.198 -21.871  0.00  0.00    +0.079 C 
BRANCH  18  19
ATOM     19  C   UNL     1      -2.041   2.967 -20.852  0.00  0.00    -0.024 C 
ATOM     20  C   UNL     1      -3.236   3.011 -20.342  0.00  0.00    -0.080 C 
ATOM     21  C   UNL     1      -4.187   2.285 -20.851  0.00  0.00    +0.038 C 
ATOM     22  C   UNL     1      -3.480   3.780 -19.323  0.00  0.00    +0.038 C 
ENDBRANCH  18  19
ENDBRANCH   3  18
BRANCH   1  23
ATOM     23  C   UNL     1       2.550   2.107 -23.759  0.00  0.00    +0.073 C 
BRANCH  23  26
ATOM     24  C   UNL     1       5.334   3.944 -22.925  0.00  0.00    +0.038 C 
ATOM     25  C   UNL     1       4.506   2.947 -23.030  0.00  0.00    -0.079 C 
ATOM     26  C   UNL     1       3.377   3.104 -23.655  0.00  0.00    -0.023 C 
ATOM     27  C   UNL     1       4.808   1.795 -22.509  0.00  0.00    +0.038 C 
ENDBRANCH  23  26
ENDBRANCH   1  23
TORSDOF 7
ENDMDL
MODEL 5
REMARK VINA RESULT:    -7.288      2.739      5.411
REMARK INTER + INTRA:          -8.653
REMARK INTER:                 -10.007
REMARK INTRA:                   1.354
REMARK UNBOUND:                 1.405
REMARK  Name = CC(C)=CCC1=C(O)[C@](O)(CC=C(C)C)C(O)=C(C(=O)CC(C)C)C1=O              ZINC000100151010
REMARK  13 active torsions:
REMARK  status: ('A' for Active; 'I' for Inactive)
REMARK    1  A    between atoms: C_1  and  C_2
REMARK    2  A    between atoms: C_2  and  C_3
REMARK    3  A    between atoms: C_4  and  C_5
REMARK    4  A    between atoms: C_5  and  C_6
REMARK    5  A    between atoms: C_9  and  O_10
REMARK    6  A    between atoms: C_9  and  C_11
REMARK    7  A    between atoms: C_11  and  C_12
REMARK    8  A    between atoms: C_13  and  C_14
REMARK    9  A    between atoms: C_13  and  C_15
REMARK   10  A    between atoms: C_19  and  C_21
REMARK   11  A    between atoms: C_21  and  C_22
REMARK   12  A    between atoms: C_22  and  C_23
REMARK   13  A    between atoms: C_22  and  C_24
REMARK                            x       y       z     vdW  Elec       q    Type
REMARK                         _______ _______ _______ _____ _____    ______ ____
ROOT
ATOM      1  C   UNL     1       3.926   2.779 -23.431  0.00  0.00    +0.026 C 
ATOM      2  C   UNL     1       2.696   2.851 -23.847  0.00  0.00    +0.206 C 
ATOM      3  C   UNL     1       2.056   3.980 -23.794  0.00  0.00    +0.201 C 
ATOM      4  C   UNL     1       2.646   5.040 -23.324  0.00  0.00    +0.235 C 
ATOM      5  C   UNL     1       3.874   4.969 -22.908  0.00  0.00    -0.109 C 
ATOM      6  C   UNL     1       4.464   6.029 -22.439  0.00  0.00    -0.117 C 
ATOM      7  O   UNL     1       5.693   5.958 -22.022  0.00  0.00    -0.826 OA
ATOM      8  O   UNL     1       2.005   6.170 -23.271  0.00  0.00    -0.280 OA
ATOM      9  O   UNL     1       2.107   1.791 -24.317  0.00  0.00    -0.288 OA
ATOM     10  C   UNL     1       4.515   3.839 -22.961  0.00  0.00    -0.218 C 
ATOM     11  O   UNL     1       5.745   3.768 -22.545  0.00  0.00    -0.791 OA
ENDROOT
BRANCH   3  12
ATOM     12  O   UNL     1       1.134   3.222 -24.307  0.00  0.00    -0.373 OA
ATOM     13  H   UNL     1       0.638   2.789 -23.595  0.00  0.00    +0.211 HD
ENDBRANCH   3  12
BRANCH   6  14
ATOM     14  C   UNL     1       3.824   7.159 -22.385  0.00  0.00    +0.024 C 
BRANCH  14  15
ATOM     15  C   UNL     1       4.336   8.166 -21.742  0.00  0.00    -0.014 C 
ATOM     16  C   UNL     1       4.245   8.224 -20.447  0.00  0.00    +0.007 C 
ATOM     17  C   UNL     1       4.938   9.115 -22.395  0.00  0.00    +0.007 C 
ENDBRANCH  14  15
ENDBRANCH   6  14
BRANCH   3  18
ATOM     18  C   UNL     1       1.095   4.848 -23.919  0.00  0.00    +0.079 C 
BRANCH  18  19
ATOM     19  C   UNL     1      -0.057   4.476 -24.391  0.00  0.00    -0.024 C 
ATOM     20  C   UNL     1      -1.136   4.654 -23.688  0.00  0.00    -0.080 C 
ATOM     21  C   UNL     1      -1.062   5.203 -22.511  0.00  0.00    +0.038 C 
ATOM     22  C   UNL     1      -2.289   4.283 -24.160  0.00  0.00    +0.038 C 
ENDBRANCH  18  19
ENDBRANCH   3  18
BRANCH   1  23
ATOM     23  C   UNL     1       4.566   1.649 -23.484  0.00  0.00    +0.073 C 
BRANCH  23  26
ATOM     24  C   UNL     1       5.164   0.104 -20.471  0.00  0.00    +0.038 C 
ATOM     25  C   UNL     1       4.540   0.548 -21.521  0.00  0.00    -0.079 C 
ATOM     26  C   UNL     1       5.191   1.205 -22.434  0.00  0.00    -0.023 C 
ATOM     27  C   UNL     1       3.265   0.333 -21.657  0.00  0.00    +0.038 C 
ENDBRANCH  23  26
ENDBRANCH   1  23
TORSDOF 7
ENDMDL
MODEL 6
REMARK VINA RESULT:    -7.091      2.637      5.819
REMARK INTER + INTRA:          -8.381
REMARK INTER:                  -8.889
REMARK INTRA:                   0.508
REMARK UNBOUND:                 1.405
REMARK  Name = CC(C)=CCC1=C(O)[C@](O)(CC=C(C)C)C(O)=C(C(=O)CC(C)C)C1=O              ZINC000100151010
REMARK  13 active torsions:
REMARK  status: ('A' for Active; 'I' for Inactive)
REMARK    1  A    between atoms: C_1  and  C_2
REMARK    2  A    between atoms: C_2  and  C_3
REMARK    3  A    between atoms: C_4  and  C_5
REMARK    4  A    between atoms: C_5  and  C_6
REMARK    5  A    between atoms: C_9  and  O_10
REMARK    6  A    between atoms: C_9  and  C_11
REMARK    7  A    between atoms: C_11  and  C_12
REMARK    8  A    between atoms: C_13  and  C_14
REMARK    9  A    between atoms: C_13  and  C_15
REMARK   10  A    between atoms: C_19  and  C_21
REMARK   11  A    between atoms: C_21  and  C_22
REMARK   12  A    between atoms: C_22  and  C_23
REMARK   13  A    between atoms: C_22  and  C_24
REMARK                            x       y       z     vdW  Elec       q    Type
REMARK                         _______ _______ _______ _____ _____    ______ ____
ROOT
ATOM      1  C   UNL     1       3.883   5.327 -22.868  0.00  0.00    +0.026 C 
ATOM      2  C   UNL     1       4.585   4.264 -22.606  0.00  0.00    +0.206 C 
ATOM      3  C   UNL     1       4.045   3.087 -22.711  0.00  0.00    +0.201 C 
ATOM      4  C   UNL     1       2.803   2.972 -23.076  0.00  0.00    +0.235 C 
ATOM      5  C   UNL     1       2.101   4.034 -23.338  0.00  0.00    -0.109 C 
ATOM      6  C   UNL     1       0.859   3.919 -23.704  0.00  0.00    -0.117 C 
ATOM      7  O   UNL     1       0.157   4.981 -23.965  0.00  0.00    -0.826 OA
ATOM      8  O   UNL     1       2.262   1.793 -23.181  0.00  0.00    -0.280 OA
ATOM      9  O   UNL     1       5.828   4.380 -22.240  0.00  0.00    -0.288 OA
ATOM     10  C   UNL     1       2.641   5.212 -23.233  0.00  0.00    -0.218 C 
ATOM     11  O   UNL     1       1.939   6.275 -23.495  0.00  0.00    -0.791 OA
ENDROOT
BRANCH   3  12
ATOM     12  O   UNL     1       5.244   2.753 -22.336  0.00  0.00    -0.373 OA
ATOM     13  H   UNL     1       5.887   3.077 -22.985  0.00  0.00    +0.211 HD
ENDBRANCH   3  12
BRANCH   6  14
ATOM     14  C   UNL     1       0.318   2.741 -23.808  0.00  0.00    +0.024 C 
BRANCH  14  15
ATOM     15  C   UNL     1      -0.864   2.522 -23.314  0.00  0.00    -0.014 C 
ATOM     16  C   UNL     1      -1.907   2.546 -24.089  0.00  0.00    +0.007 C 
ATOM     17  C   UNL     1      -1.003   2.280 -22.045  0.00  0.00    +0.007 C 
ENDBRANCH  14  15
ENDBRANCH   6  14
BRANCH   3  18
ATOM     18  C   UNL     1       3.921   1.793 -22.685  0.00  0.00    +0.079 C 
BRANCH  18  19
ATOM     19  C   UNL     1       4.861   1.060 -22.166  0.00  0.00    -0.024 C 
ATOM     20  C   UNL     1       4.625   0.363 -21.094  0.00  0.00    -0.080 C 
ATOM     21  C   UNL     1       3.449   0.399 -20.542  0.00  0.00    +0.038 C 
ATOM     22  C   UNL     1       5.565  -0.370 -20.575  0.00  0.00    +0.038 C 
ENDBRANCH  18  19
ENDBRANCH   3  18
BRANCH   1  23
ATOM     23  C   UNL     1       4.424   6.505 -22.763  0.00  0.00    +0.073 C 
BRANCH  23  26
ATOM     24  C   UNL     1       4.276   8.871 -20.272  0.00  0.00    +0.038 C 
ATOM     25  C   UNL     1       4.753   8.009 -21.121  0.00  0.00    -0.079 C 
ATOM     26  C   UNL     1       3.948   7.366 -21.913  0.00  0.00    -0.023 C 
ATOM     27  C   UNL     1       6.033   7.793 -21.177  0.00  0.00    +0.038 C 
ENDBRANCH  23  26
ENDBRANCH   1  23
TORSDOF 7
ENDMDL
MODEL 7
REMARK VINA RESULT:    -6.694      3.510      6.529
REMARK INTER + INTRA:          -7.833
REMARK INTER:                  -8.694
REMARK INTRA:                   0.861
REMARK UNBOUND:                 1.405
REMARK  Name = CC(C)=CCC1=C(O)[C@](O)(CC=C(C)C)C(O)=C(C(=O)CC(C)C)C1=O              ZINC000100151010
REMARK  13 active torsions:
REMARK  status: ('A' for Active; 'I' for Inactive)
REMARK    1  A    between atoms: C_1  and  C_2
REMARK    2  A    between atoms: C_2  and  C_3
REMARK    3  A    between atoms: C_4  and  C_5
REMARK    4  A    between atoms: C_5  and  C_6
REMARK    5  A    between atoms: C_9  and  O_10
REMARK    6  A    between atoms: C_9  and  C_11
REMARK    7  A    between atoms: C_11  and  C_12
REMARK    8  A    between atoms: C_13  and  C_14
REMARK    9  A    between atoms: C_13  and  C_15
REMARK   10  A    between atoms: C_19  and  C_21
REMARK   11  A    between atoms: C_21  and  C_22
REMARK   12  A    between atoms: C_22  and  C_23
REMARK   13  A    between atoms: C_22  and  C_24
REMARK                            x       y       z     vdW  Elec       q    Type
REMARK                         _______ _______ _______ _____ _____    ______ ____
ROOT
ATOM      1  C   UNL     1       6.169   4.251 -22.689  0.00  0.00    +0.026 C 
ATOM      2  C   UNL     1       5.048   3.762 -23.131  0.00  0.00    +0.206 C 
ATOM      3  C   UNL     1       3.971   4.489 -23.118  0.00  0.00    +0.201 C 
ATOM      4  C   UNL     1       4.015   5.705 -22.662  0.00  0.00    +0.235 C 
ATOM      5  C   UNL     1       5.134   6.195 -22.220  0.00  0.00    -0.109 C 
ATOM      6  C   UNL     1       5.177   7.411 -21.764  0.00  0.00    -0.117 C 
ATOM      7  O   UNL     1       6.297   7.901 -21.322  0.00  0.00    -0.826 OA
ATOM      8  O   UNL     1       2.936   6.433 -22.649  0.00  0.00    -0.280 OA
ATOM      9  O   UNL     1       5.006   2.544 -23.587  0.00  0.00    -0.288 OA
ATOM     10  C   UNL     1       6.212   5.467 -22.233  0.00  0.00    -0.218 C 
ATOM     11  O   UNL     1       7.332   5.957 -21.791  0.00  0.00    -0.791 OA
ENDROOT
BRANCH   3  12
ATOM     12  O   UNL     1       3.498   3.392 -23.631  0.00  0.00    -0.373 OA
ATOM     13  H   UNL     1       2.925   3.608 -24.382  0.00  0.00    +0.211 HD
ENDBRANCH   3  12
BRANCH   6  14
ATOM     14  C   UNL     1       4.099   8.139 -21.751  0.00  0.00    +0.024 C 
BRANCH  14  15
ATOM     15  C   UNL     1       4.191   9.436 -21.724  0.00  0.00    -0.014 C 
ATOM     16  C   UNL     1       4.238  10.061 -20.585  0.00  0.00    +0.007 C 
ATOM     17  C   UNL     1       4.235  10.107 -22.836  0.00  0.00    +0.007 C 
ENDBRANCH  14  15
ENDBRANCH   6  14
BRANCH   3  18
ATOM     18  C   UNL     1       2.729   4.835 -23.282  0.00  0.00    +0.079 C 
BRANCH  18  19
ATOM     19  C   UNL     1       2.023   4.291 -24.228  0.00  0.00    -0.024 C 
ATOM     20  C   UNL     1       0.724   4.310 -24.163  0.00  0.00    -0.080 C 
ATOM     21  C   UNL     1       0.133   4.874 -23.152  0.00  0.00    +0.038 C 
ATOM     22  C   UNL     1       0.017   3.766 -25.109  0.00  0.00    +0.038 C 
ENDBRANCH  18  19
ENDBRANCH   3  18
BRANCH   1  23
ATOM     23  C   UNL     1       7.246   3.523 -22.703  0.00  0.00    +0.073 C 
BRANCH  23  26
ATOM     24  C   UNL     1       8.982   3.072 -25.636  0.00  0.00    +0.038 C 
ATOM     25  C   UNL     1       8.568   3.600 -24.523  0.00  0.00    -0.079 C 
ATOM     26  C   UNL     1       7.660   2.995 -23.816  0.00  0.00    -0.023 C 
ATOM     27  C   UNL     1       9.062   4.732 -24.117  0.00  0.00    +0.038 C 
ENDBRANCH  23  26
ENDBRANCH   1  23
TORSDOF 7
ENDMDL
MODEL 8
REMARK VINA RESULT:    -6.603      2.682      5.182
REMARK INTER + INTRA:          -7.707
REMARK INTER:                  -8.251
REMARK INTRA:                   0.544
REMARK UNBOUND:                 1.405
REMARK  Name = CC(C)=CCC1=C(O)[C@](O)(CC=C(C)C)C(O)=C(C(=O)CC(C)C)C1=O              ZINC000100151010
REMARK  13 active torsions:
REMARK  status: ('A' for Active; 'I' for Inactive)
REMARK    1  A    between atoms: C_1  and  C_2
REMARK    2  A    between atoms: C_2  and  C_3
REMARK    3  A    between atoms: C_4  and  C_5
REMARK    4  A    between atoms: C_5  and  C_6
REMARK    5  A    between atoms: C_9  and  O_10
REMARK    6  A    between atoms: C_9  and  C_11
REMARK    7  A    between atoms: C_11  and  C_12
REMARK    8  A    between atoms: C_13  and  C_14
REMARK    9  A    between atoms: C_13  and  C_15
REMARK   10  A    between atoms: C_19  and  C_21
REMARK   11  A    between atoms: C_21  and  C_22
REMARK   12  A    between atoms: C_22  and  C_23
REMARK   13  A    between atoms: C_22  and  C_24
REMARK                            x       y       z     vdW  Elec       q    Type
REMARK                         _______ _______ _______ _____ _____    ______ ____
ROOT
ATOM      1  C   UNL     1       3.675   5.379 -22.900  0.00  0.00    +0.026 C 
ATOM      2  C   UNL     1       2.478   5.069 -23.300  0.00  0.00    +0.206 C 
ATOM      3  C   UNL     1       2.100   3.826 -23.319  0.00  0.00    +0.201 C 
ATOM      4  C   UNL     1       2.919   2.892 -22.938  0.00  0.00    +0.235 C 
ATOM      5  C   UNL     1       4.116   3.200 -22.538  0.00  0.00    -0.109 C 
ATOM      6  C   UNL     1       4.935   2.266 -22.156  0.00  0.00    -0.117 C 
ATOM      7  O   UNL     1       6.133   2.574 -21.756  0.00  0.00    -0.826 OA
ATOM      8  O   UNL     1       2.540   1.648 -22.957  0.00  0.00    -0.280 OA
ATOM      9  O   UNL     1       1.658   6.005 -23.682  0.00  0.00    -0.288 OA
ATOM     10  C   UNL     1       4.495   4.444 -22.519  0.00  0.00    -0.218 C 
ATOM     11  O   UNL     1       5.692   4.753 -22.118  0.00  0.00    -0.791 OA
ENDROOT
BRANCH   3  12
ATOM     12  O   UNL     1       1.019   4.398 -23.761  0.00  0.00    -0.373 OA
ATOM     13  H   UNL     1       0.314   4.308 -23.102  0.00  0.00    +0.211 HD
ENDBRANCH   3  12
BRANCH   6  14
ATOM     14  C   UNL     1       4.557   1.022 -22.175  0.00  0.00    +0.024 C 
BRANCH  14  15
ATOM     15  C   UNL     1       4.525   0.335 -21.072  0.00  0.00    -0.014 C 
ATOM     16  C   UNL     1       3.458   0.350 -20.328  0.00  0.00    +0.007 C 
ATOM     17  C   UNL     1       5.558  -0.366 -20.712  0.00  0.00    +0.007 C 
ENDBRANCH  14  15
ENDBRANCH   6  14
BRANCH   3  18
ATOM     18  C   UNL     1       1.345   2.781 -23.492  0.00  0.00    +0.079 C 
BRANCH  18  19
ATOM     19  C   UNL     1       0.135   2.920 -23.942  0.00  0.00    -0.024 C 
ATOM     20  C   UNL     1      -0.861   2.368 -23.314  0.00  0.00    -0.080 C 
ATOM     21  C   UNL     1      -0.644   1.676 -22.235  0.00  0.00    +0.038 C 
ATOM     22  C   UNL     1      -2.072   2.508 -23.765  0.00  0.00    +0.038 C 
ENDBRANCH  18  19
ENDBRANCH   3  18
BRANCH   1  23
ATOM     23  C   UNL     1       4.053   6.623 -22.881  0.00  0.00    +0.073 C 
BRANCH  23  26
ATOM     24  C   UNL     1       4.312   8.915 -20.331  0.00  0.00    +0.038 C 
ATOM     25  C   UNL     1       4.631   8.153 -21.335  0.00  0.00    -0.079 C 
ATOM     26  C   UNL     1       3.734   7.384 -21.877  0.00  0.00    -0.023 C 
ATOM     27  C   UNL     1       5.847   8.162 -21.797  0.00  0.00    +0.038 C 
ENDBRANCH  23  26
ENDBRANCH   1  23
TORSDOF 7
ENDMDL
MODEL 9
REMARK VINA RESULT:    -6.447      3.183      5.807
REMARK INTER + INTRA:          -7.492
REMARK INTER:                  -8.896
REMARK INTRA:                   1.405
REMARK UNBOUND:                 1.405
REMARK  Name = CC(C)=CCC1=C(O)[C@](O)(CC=C(C)C)C(O)=C(C(=O)CC(C)C)C1=O              ZINC000100151010
REMARK  13 active torsions:
REMARK  status: ('A' for Active; 'I' for Inactive)
REMARK    1  A    between atoms: C_1  and  C_2
REMARK    2  A    between atoms: C_2  and  C_3
REMARK    3  A    between atoms: C_4  and  C_5
REMARK    4  A    between atoms: C_5  and  C_6
REMARK    5  A    between atoms: C_9  and  O_10
REMARK    6  A    between atoms: C_9  and  C_11
REMARK    7  A    between atoms: C_11  and  C_12
REMARK    8  A    between atoms: C_13  and  C_14
REMARK    9  A    between atoms: C_13  and  C_15
REMARK   10  A    between atoms: C_19  and  C_21
REMARK   11  A    between atoms: C_21  and  C_22
REMARK   12  A    between atoms: C_22  and  C_23
REMARK   13  A    between atoms: C_22  and  C_24
REMARK                            x       y       z     vdW  Elec       q    Type
REMARK                         _______ _______ _______ _____ _____    ______ ____
ROOT
ATOM      1  C   UNL     1       5.410   5.871 -22.289  0.00  0.00    +0.026 C 
ATOM      2  C   UNL     1       4.198   6.215 -22.610  0.00  0.00    +0.206 C 
ATOM      3  C   UNL     1       3.354   5.316 -23.019  0.00  0.00    +0.201 C 
ATOM      4  C   UNL     1       3.721   4.072 -23.108  0.00  0.00    +0.235 C 
ATOM      5  C   UNL     1       4.932   3.727 -22.787  0.00  0.00    -0.109 C 
ATOM      6  C   UNL     1       5.299   2.483 -22.875  0.00  0.00    -0.117 C 
ATOM      7  O   UNL     1       6.510   2.138 -22.555  0.00  0.00    -0.826 OA
ATOM      8  O   UNL     1       2.875   3.172 -23.517  0.00  0.00    -0.280 OA
ATOM      9  O   UNL     1       3.831   7.460 -22.521  0.00  0.00    -0.288 OA
ATOM     10  C   UNL     1       5.777   4.627 -22.377  0.00  0.00    -0.218 C 
ATOM     11  O   UNL     1       6.989   4.282 -22.056  0.00  0.00    -0.791 OA
ENDROOT
BRANCH   3  12
ATOM     12  O   UNL     1       2.603   6.376 -23.080  0.00  0.00    -0.373 OA
ATOM     13  H   UNL     1       1.724   6.131 -23.408  0.00  0.00    +0.211 HD
ENDBRANCH   3  12
BRANCH   6  14
ATOM     14  C   UNL     1       4.454   1.583 -23.285  0.00  0.00    +0.024 C 
BRANCH  14  15
ATOM     15  C   UNL     1       3.933   0.747 -22.437  0.00  0.00    -0.014 C 
ATOM     16  C   UNL     1       2.761   0.234 -22.667  0.00  0.00    +0.007 C 
ATOM     17  C   UNL     1       4.584   0.424 -21.360  0.00  0.00    +0.007 C 
ENDBRANCH  14  15
ENDBRANCH   6  14
BRANCH   3  18
ATOM     18  C   UNL     1       2.248   4.784 -23.450  0.00  0.00    +0.079 C 
BRANCH  18  19
ATOM     19  C   UNL     1       1.106   5.190 -22.981  0.00  0.00    -0.024 C 
ATOM     20  C   UNL     1      -0.000   4.837 -23.566  0.00  0.00    -0.080 C 
ATOM     21  C   UNL     1       0.036   4.076 -24.620  0.00  0.00    +0.038 C 
ATOM     22  C   UNL     1      -1.143   5.243 -23.097  0.00  0.00    +0.038 C 
ENDBRANCH  18  19
ENDBRANCH   3  18
BRANCH   1  23
ATOM     23  C   UNL     1       6.254   6.771 -21.879  0.00  0.00    +0.073 C 
BRANCH  23  26
ATOM     24  C   UNL     1       8.381   6.985 -19.186  0.00  0.00    +0.038 C 
ATOM     25  C   UNL     1       7.941   7.016 -20.408  0.00  0.00    -0.079 C 
ATOM     26  C   UNL     1       6.695   6.740 -20.657  0.00  0.00    -0.023 C 
ATOM     27  C   UNL     1       8.747   7.321 -21.382  0.00  0.00    +0.038 C 
ENDBRANCH  23  26
ENDBRANCH   1  23
TORSDOF 7
ENDMDL
