MODEL 1
REMARK VINA RESULT:    -8.018      0.000      0.000
REMARK INTER + INTRA:          -8.950
REMARK INTER:                  -8.661
REMARK INTRA:                  -0.289
REMARK UNBOUND:                -0.229
REMARK  Name = ZINC000001390924
REMARK  3 active torsions:
REMARK  status: ('A' for Active; 'I' for Inactive)
REMARK    1  A    between atoms: C_1  and  C_2
REMARK    2  A    between atoms: C_7  and  N_8
REMARK    3  A    between atoms: C_9  and  C_10
REMARK                            x       y       z     vdW  Elec       q    Type
REMARK                         _______ _______ _______ _____ _____    ______ ____
ROOT
ATOM      1  C   UNL     1      -5.852   3.328 -22.099  0.00  0.00    +0.044 C 
ATOM      2  C   UNL     1      -4.854   3.433 -22.925  0.00  0.00    -0.050 A 
ATOM      3  C   UNL     1      -5.056   3.856 -24.138  0.00  0.00    +0.007 A 
ATOM      4  C   UNL     1      -4.058   3.961 -24.964  0.00  0.00    +0.047 A 
ATOM      5  C   UNL     1      -2.858   3.643 -24.578  0.00  0.00    +0.141 A 
ATOM      6  O   UNL     1      -1.860   3.748 -25.405  0.00  0.00    -0.441 OA
ATOM      7  C   UNL     1      -0.660   3.430 -25.018  0.00  0.00    +0.198 A 
ATOM      8  C   UNL     1      -0.459   3.007 -23.806  0.00  0.00    +0.118 A 
ATOM      9  C   UNL     1      -1.456   2.902 -22.979  0.00  0.00    +0.205 A 
ATOM     10  O   UNL     1      -1.254   2.479 -21.767  0.00  0.00    -0.286 OA
ATOM     11  C   UNL     1      -2.656   3.220 -23.366  0.00  0.00    +0.065 A 
ATOM     12  C   UNL     1      -3.653   3.115 -22.539  0.00  0.00    +0.018 A 
ENDROOT
BRANCH   7  13
ATOM     13  N   UNL     1       0.338   3.535 -25.845  0.00  0.00    -0.329 N 
ATOM     14  H   UNL     1       0.874   2.741 -26.074  0.00  0.00    +0.145 HD
ATOM     15  H   UNL     1       0.559   4.408 -26.242  0.00  0.00    +0.145 HD
ENDBRANCH   7  13
BRANCH   8  16
ATOM     16  C   UNL     1       0.742   2.689 -23.420  0.00  0.00    +0.267 C 
ATOM     17  O   UNL     1       1.237   1.527 -23.727  0.00  0.00    -0.295 OA
ENDBRANCH   8  16
TORSDOF 2
ENDMDL
MODEL 2
REMARK VINA RESULT:    -7.713      1.726      2.738
REMARK INTER + INTRA:          -8.618
REMARK INTER:                  -8.343
REMARK INTRA:                  -0.275
REMARK UNBOUND:                -0.229
REMARK  Name = ZINC000001390924
REMARK  3 active torsions:
REMARK  status: ('A' for Active; 'I' for Inactive)
REMARK    1  A    between atoms: C_1  and  C_2
REMARK    2  A    between atoms: C_7  and  N_8
REMARK    3  A    between atoms: C_9  and  C_10
REMARK                            x       y       z     vdW  Elec       q    Type
REMARK                         _______ _______ _______ _____ _____    ______ ____
ROOT
ATOM      1  C   UNL     1      -5.212   4.232 -24.403  0.00  0.00    +0.044 C 
ATOM      2  C   UNL     1      -4.344   3.701 -23.594  0.00  0.00    -0.050 A 
ATOM      3  C   UNL     1      -4.713   3.308 -22.411  0.00  0.00    +0.007 A 
ATOM      4  C   UNL     1      -3.845   2.777 -21.603  0.00  0.00    +0.047 A 
ATOM      5  C   UNL     1      -2.607   2.638 -21.977  0.00  0.00    +0.141 A 
ATOM      6  O   UNL     1      -1.739   2.107 -21.169  0.00  0.00    -0.441 OA
ATOM      7  C   UNL     1      -0.502   1.969 -21.543  0.00  0.00    +0.198 A 
ATOM      8  C   UNL     1      -0.133   2.362 -22.726  0.00  0.00    +0.118 A 
ATOM      9  C   UNL     1      -1.001   2.894 -23.534  0.00  0.00    +0.205 A 
ATOM     10  O   UNL     1      -0.633   3.287 -24.717  0.00  0.00    -0.286 OA
ATOM     11  C   UNL     1      -2.238   3.032 -23.160  0.00  0.00    +0.065 A 
ATOM     12  C   UNL     1      -3.106   3.563 -23.969  0.00  0.00    +0.018 A 
ENDROOT
BRANCH   7  13
ATOM     13  N   UNL     1       0.367   1.438 -20.734  0.00  0.00    -0.329 N 
ATOM     14  H   UNL     1       0.142   1.310 -19.784  0.00  0.00    +0.145 HD
ATOM     15  H   UNL     1       1.249   1.162 -21.072  0.00  0.00    +0.145 HD
ENDBRANCH   7  13
BRANCH   8  16
ATOM     16  C   UNL     1       1.104   2.224 -23.100  0.00  0.00    +0.267 C 
ATOM     17  O   UNL     1       1.595   1.037 -23.297  0.00  0.00    -0.295 OA
ENDBRANCH   8  16
TORSDOF 2
ENDMDL
MODEL 3
REMARK VINA RESULT:    -7.605      1.739      2.336
REMARK INTER + INTRA:          -8.500
REMARK INTER:                  -8.206
REMARK INTRA:                  -0.294
REMARK UNBOUND:                -0.229
REMARK  Name = ZINC000001390924
REMARK  3 active torsions:
REMARK  status: ('A' for Active; 'I' for Inactive)
REMARK    1  A    between atoms: C_1  and  C_2
REMARK    2  A    between atoms: C_7  and  N_8
REMARK    3  A    between atoms: C_9  and  C_10
REMARK                            x       y       z     vdW  Elec       q    Type
REMARK                         _______ _______ _______ _____ _____    ______ ____
ROOT
ATOM      1  C   UNL     1      -4.094   2.749 -20.983  0.00  0.00    +0.044 C 
ATOM      2  C   UNL     1      -3.073   2.764 -21.787  0.00  0.00    -0.050 A 
ATOM      3  C   UNL     1      -3.177   3.319 -22.959  0.00  0.00    +0.007 A 
ATOM      4  C   UNL     1      -2.157   3.333 -23.764  0.00  0.00    +0.047 A 
ATOM      5  C   UNL     1      -1.032   2.793 -23.398  0.00  0.00    +0.141 A 
ATOM      6  O   UNL     1      -0.011   2.808 -24.203  0.00  0.00    -0.441 OA
ATOM      7  C   UNL     1       1.113   2.268 -23.836  0.00  0.00    +0.198 A 
ATOM      8  C   UNL     1       1.216   1.713 -22.665  0.00  0.00    +0.118 A 
ATOM      9  C   UNL     1       0.196   1.698 -21.860  0.00  0.00    +0.205 A 
ATOM     10  O   UNL     1       0.299   1.143 -20.689  0.00  0.00    -0.286 OA
ATOM     11  C   UNL     1      -0.928   2.238 -22.227  0.00  0.00    +0.065 A 
ATOM     12  C   UNL     1      -1.948   2.224 -21.422  0.00  0.00    +0.018 A 
ENDROOT
BRANCH   7  13
ATOM     13  N   UNL     1       2.134   2.282 -24.642  0.00  0.00    -0.329 N 
ATOM     14  H   UNL     1       2.419   1.454 -25.092  0.00  0.00    +0.145 HD
ATOM     15  H   UNL     1       2.623   3.121 -24.801  0.00  0.00    +0.145 HD
ENDBRANCH   7  13
BRANCH   8  16
ATOM     16  C   UNL     1       2.341   1.172 -22.299  0.00  0.00    +0.267 C 
ATOM     17  O   UNL     1       2.673  -0.003 -22.744  0.00  0.00    -0.295 OA
ENDBRANCH   8  16
TORSDOF 2
ENDMDL
MODEL 4
REMARK VINA RESULT:    -7.571      2.295      4.845
REMARK INTER + INTRA:          -8.463
REMARK INTER:                  -8.170
REMARK INTRA:                  -0.293
REMARK UNBOUND:                -0.229
REMARK  Name = ZINC000001390924
REMARK  3 active torsions:
REMARK  status: ('A' for Active; 'I' for Inactive)
REMARK    1  A    between atoms: C_1  and  C_2
REMARK    2  A    between atoms: C_7  and  N_8
REMARK    3  A    between atoms: C_9  and  C_10
REMARK                            x       y       z     vdW  Elec       q    Type
REMARK                         _______ _______ _______ _____ _____    ______ ____
ROOT
ATOM      1  C   UNL     1       1.459   1.824 -22.745  0.00  0.00    +0.044 C 
ATOM      2  C   UNL     1       0.203   2.091 -22.546  0.00  0.00    -0.050 A 
ATOM      3  C   UNL     1      -0.319   1.925 -21.367  0.00  0.00    +0.007 A 
ATOM      4  C   UNL     1      -1.576   2.193 -21.169  0.00  0.00    +0.047 A 
ATOM      5  C   UNL     1      -2.311   2.627 -22.149  0.00  0.00    +0.141 A 
ATOM      6  O   UNL     1      -3.567   2.895 -21.951  0.00  0.00    -0.441 OA
ATOM      7  C   UNL     1      -4.302   3.330 -22.931  0.00  0.00    +0.198 A 
ATOM      8  C   UNL     1      -3.780   3.496 -24.110  0.00  0.00    +0.118 A 
ATOM      9  C   UNL     1      -2.523   3.228 -24.308  0.00  0.00    +0.205 A 
ATOM     10  O   UNL     1      -2.002   3.395 -25.487  0.00  0.00    -0.286 OA
ATOM     11  C   UNL     1      -1.789   2.794 -23.328  0.00  0.00    +0.065 A 
ATOM     12  C   UNL     1      -0.533   2.526 -23.527  0.00  0.00    +0.018 A 
ENDROOT
BRANCH   7  13
ATOM     13  N   UNL     1      -5.559   3.598 -22.733  0.00  0.00    -0.329 N 
ATOM     14  H   UNL     1      -5.837   4.513 -22.500  0.00  0.00    +0.145 HD
ATOM     15  H   UNL     1      -6.232   2.885 -22.815  0.00  0.00    +0.145 HD
ENDBRANCH   7  13
BRANCH   8  16
ATOM     16  C   UNL     1      -4.515   3.931 -25.090  0.00  0.00    +0.267 C 
ATOM     17  O   UNL     1      -4.856   5.184 -25.141  0.00  0.00    -0.295 OA
ENDBRANCH   8  16
TORSDOF 2
ENDMDL
MODEL 5
REMARK VINA RESULT:    -7.473      1.664      2.105
REMARK INTER + INTRA:          -8.357
REMARK INTER:                  -8.089
REMARK INTRA:                  -0.269
REMARK UNBOUND:                -0.229
REMARK  Name = ZINC000001390924
REMARK  3 active torsions:
REMARK  status: ('A' for Active; 'I' for Inactive)
REMARK    1  A    between atoms: C_1  and  C_2
REMARK    2  A    between atoms: C_7  and  N_8
REMARK    3  A    between atoms: C_9  and  C_10
REMARK                            x       y       z     vdW  Elec       q    Type
REMARK                         _______ _______ _______ _____ _____    ______ ____
ROOT
ATOM      1  C   UNL     1      -3.313   3.765 -19.578  0.00  0.00    +0.044 C 
ATOM      2  C   UNL     1      -3.254   3.665 -20.873  0.00  0.00    -0.050 A 
ATOM      3  C   UNL     1      -4.333   3.424 -21.556  0.00  0.00    +0.007 A 
ATOM      4  C   UNL     1      -4.274   3.324 -22.851  0.00  0.00    +0.047 A 
ATOM      5  C   UNL     1      -3.136   3.464 -23.463  0.00  0.00    +0.141 A 
ATOM      6  O   UNL     1      -3.077   3.364 -24.757  0.00  0.00    -0.441 OA
ATOM      7  C   UNL     1      -1.938   3.505 -25.369  0.00  0.00    +0.198 A 
ATOM      8  C   UNL     1      -0.859   3.746 -24.685  0.00  0.00    +0.118 A 
ATOM      9  C   UNL     1      -0.918   3.846 -23.391  0.00  0.00    +0.205 A 
ATOM     10  O   UNL     1       0.161   4.087 -22.707  0.00  0.00    -0.286 OA
ATOM     11  C   UNL     1      -2.056   3.705 -22.780  0.00  0.00    +0.065 A 
ATOM     12  C   UNL     1      -2.115   3.805 -21.485  0.00  0.00    +0.018 A 
ENDROOT
BRANCH   7  13
ATOM     13  N   UNL     1      -1.879   3.405 -26.664  0.00  0.00    -0.329 N 
ATOM     14  H   UNL     1      -2.545   2.865 -27.148  0.00  0.00    +0.145 HD
ATOM     15  H   UNL     1      -1.168   3.869 -27.161  0.00  0.00    +0.145 HD
ENDBRANCH   7  13
BRANCH   8  16
ATOM     16  C   UNL     1       0.280   3.886 -25.297  0.00  0.00    +0.267 C 
ATOM     17  O   UNL     1       0.995   2.841 -25.589  0.00  0.00    -0.295 OA
ENDBRANCH   8  16
TORSDOF 2
ENDMDL
MODEL 6
REMARK VINA RESULT:    -7.232      2.271      3.279
REMARK INTER + INTRA:          -8.095
REMARK INTER:                  -7.854
REMARK INTRA:                  -0.241
REMARK UNBOUND:                -0.229
REMARK  Name = ZINC000001390924
REMARK  3 active torsions:
REMARK  status: ('A' for Active; 'I' for Inactive)
REMARK    1  A    between atoms: C_1  and  C_2
REMARK    2  A    between atoms: C_7  and  N_8
REMARK    3  A    between atoms: C_9  and  C_10
REMARK                            x       y       z     vdW  Elec       q    Type
REMARK                         _______ _______ _______ _____ _____    ______ ____
ROOT
ATOM      1  C   UNL     1      -3.446   3.406 -27.476  0.00  0.00    +0.044 C 
ATOM      2  C   UNL     1      -3.526   3.436 -26.179  0.00  0.00    -0.050 A 
ATOM      3  C   UNL     1      -4.602   3.884 -25.604  0.00  0.00    +0.007 A 
ATOM      4  C   UNL     1      -4.682   3.914 -24.307  0.00  0.00    +0.047 A 
ATOM      5  C   UNL     1      -3.685   3.496 -23.584  0.00  0.00    +0.141 A 
ATOM      6  O   UNL     1      -3.765   3.526 -22.287  0.00  0.00    -0.441 OA
ATOM      7  C   UNL     1      -2.768   3.108 -21.565  0.00  0.00    +0.198 A 
ATOM      8  C   UNL     1      -1.692   2.660 -22.141  0.00  0.00    +0.118 A 
ATOM      9  C   UNL     1      -1.612   2.630 -23.438  0.00  0.00    +0.205 A 
ATOM     10  O   UNL     1      -0.535   2.182 -24.013  0.00  0.00    -0.286 OA
ATOM     11  C   UNL     1      -2.608   3.048 -24.159  0.00  0.00    +0.065 A 
ATOM     12  C   UNL     1      -2.529   3.018 -25.456  0.00  0.00    +0.018 A 
ENDROOT
BRANCH   7  13
ATOM     13  N   UNL     1      -2.847   3.138 -20.268  0.00  0.00    -0.329 N 
ATOM     14  H   UNL     1      -2.426   2.428 -19.732  0.00  0.00    +0.145 HD
ATOM     15  H   UNL     1      -3.329   3.870 -19.821  0.00  0.00    +0.145 HD
ENDBRANCH   7  13
BRANCH   8  16
ATOM     16  C   UNL     1      -0.695   2.242 -21.418  0.00  0.00    +0.267 C 
ATOM     17  O   UNL     1      -0.638   0.997 -21.046  0.00  0.00    -0.295 OA
ENDBRANCH   8  16
TORSDOF 2
ENDMDL
MODEL 7
REMARK VINA RESULT:    -7.009      2.523      3.986
REMARK INTER + INTRA:          -7.852
REMARK INTER:                  -7.560
REMARK INTRA:                  -0.292
REMARK UNBOUND:                -0.229
REMARK  Name = ZINC000001390924
REMARK  3 active torsions:
REMARK  status: ('A' for Active; 'I' for Inactive)
REMARK    1  A    between atoms: C_1  and  C_2
REMARK    2  A    between atoms: C_7  and  N_8
REMARK    3  A    between atoms: C_9  and  C_10
REMARK                            x       y       z     vdW  Elec       q    Type
REMARK                         _______ _______ _______ _____ _____    ______ ____
ROOT
ATOM      1  C   UNL     1      -3.051   3.709 -23.965  0.00  0.00    +0.044 C 
ATOM      2  C   UNL     1      -2.170   3.153 -23.187  0.00  0.00    -0.050 A 
ATOM      3  C   UNL     1      -2.554   2.515 -22.122  0.00  0.00    +0.007 A 
ATOM      4  C   UNL     1      -1.674   1.958 -21.344  0.00  0.00    +0.047 A 
ATOM      5  C   UNL     1      -0.408   2.040 -21.632  0.00  0.00    +0.141 A 
ATOM      6  O   UNL     1       0.473   1.484 -20.854  0.00  0.00    -0.441 OA
ATOM      7  C   UNL     1       1.737   1.565 -21.142  0.00  0.00    +0.198 A 
ATOM      8  C   UNL     1       2.121   2.203 -22.208  0.00  0.00    +0.118 A 
ATOM      9  C   UNL     1       1.241   2.760 -22.985  0.00  0.00    +0.205 A 
ATOM     10  O   UNL     1       1.625   3.398 -24.051  0.00  0.00    -0.286 OA
ATOM     11  C   UNL     1      -0.024   2.678 -22.697  0.00  0.00    +0.065 A 
ATOM     12  C   UNL     1      -0.904   3.234 -23.475  0.00  0.00    +0.018 A 
ENDROOT
BRANCH   7  13
ATOM     13  N   UNL     1       2.619   1.009 -20.364  0.00  0.00    -0.329 N 
ATOM     14  H   UNL     1       3.451   0.645 -20.744  0.00  0.00    +0.145 HD
ATOM     15  H   UNL     1       2.454   0.951 -19.396  0.00  0.00    +0.145 HD
ENDBRANCH   7  13
BRANCH   8  16
ATOM     16  C   UNL     1       3.387   2.285 -22.496  0.00  0.00    +0.267 C 
ATOM     17  O   UNL     1       4.160   3.074 -21.811  0.00  0.00    -0.295 OA
ENDBRANCH   8  16
TORSDOF 2
ENDMDL
MODEL 8
REMARK VINA RESULT:    -6.959      2.221      4.424
REMARK INTER + INTRA:          -7.797
REMARK INTER:                  -7.505
REMARK INTRA:                  -0.292
REMARK UNBOUND:                -0.229
REMARK  Name = ZINC000001390924
REMARK  3 active torsions:
REMARK  status: ('A' for Active; 'I' for Inactive)
REMARK    1  A    between atoms: C_1  and  C_2
REMARK    2  A    between atoms: C_7  and  N_8
REMARK    3  A    between atoms: C_9  and  C_10
REMARK                            x       y       z     vdW  Elec       q    Type
REMARK                         _______ _______ _______ _____ _____    ______ ____
ROOT
ATOM      1  C   UNL     1       1.550   2.785 -23.723  0.00  0.00    +0.044 C 
ATOM      2  C   UNL     1       0.293   3.044 -23.932  0.00  0.00    -0.050 A 
ATOM      3  C   UNL     1      -0.107   3.414 -25.112  0.00  0.00    +0.007 A 
ATOM      4  C   UNL     1      -1.364   3.673 -25.321  0.00  0.00    +0.047 A 
ATOM      5  C   UNL     1      -2.221   3.562 -24.349  0.00  0.00    +0.141 A 
ATOM      6  O   UNL     1      -3.477   3.821 -24.557  0.00  0.00    -0.441 OA
ATOM      7  C   UNL     1      -4.333   3.710 -23.586  0.00  0.00    +0.198 A 
ATOM      8  C   UNL     1      -3.933   3.340 -22.405  0.00  0.00    +0.118 A 
ATOM      9  C   UNL     1      -2.676   3.082 -22.197  0.00  0.00    +0.205 A 
ATOM     10  O   UNL     1      -2.276   2.712 -21.016  0.00  0.00    -0.286 OA
ATOM     11  C   UNL     1      -1.820   3.192 -23.168  0.00  0.00    +0.065 A 
ATOM     12  C   UNL     1      -0.564   2.934 -22.960  0.00  0.00    +0.018 A 
ENDROOT
BRANCH   7  13
ATOM     13  N   UNL     1      -5.591   3.969 -23.794  0.00  0.00    -0.329 N 
ATOM     14  H   UNL     1      -6.284   3.377 -23.423  0.00  0.00    +0.145 HD
ATOM     15  H   UNL     1      -5.850   4.757 -24.323  0.00  0.00    +0.145 HD
ENDBRANCH   7  13
BRANCH   8  16
ATOM     16  C   UNL     1      -4.790   3.230 -21.433  0.00  0.00    +0.267 C 
ATOM     17  O   UNL     1      -5.616   2.226 -21.406  0.00  0.00    -0.295 OA
ENDBRANCH   8  16
TORSDOF 2
ENDMDL
MODEL 9
REMARK VINA RESULT:    -6.707      2.473      5.012
REMARK INTER + INTRA:          -7.524
REMARK INTER:                  -7.295
REMARK INTRA:                  -0.229
REMARK UNBOUND:                -0.229
REMARK  Name = ZINC000001390924
REMARK  3 active torsions:
REMARK  status: ('A' for Active; 'I' for Inactive)
REMARK    1  A    between atoms: C_1  and  C_2
REMARK    2  A    between atoms: C_7  and  N_8
REMARK    3  A    between atoms: C_9  and  C_10
REMARK                            x       y       z     vdW  Elec       q    Type
REMARK                         _______ _______ _______ _____ _____    ______ ____
ROOT
ATOM      1  C   UNL     1       0.686   3.741 -25.519  0.00  0.00    +0.044 C 
ATOM      2  C   UNL     1      -0.024   3.369 -24.496  0.00  0.00    -0.050 A 
ATOM      3  C   UNL     1       0.520   2.665 -23.548  0.00  0.00    +0.007 A 
ATOM      4  C   UNL     1      -0.190   2.293 -22.525  0.00  0.00    +0.047 A 
ATOM      5  C   UNL     1      -1.445   2.624 -22.450  0.00  0.00    +0.141 A 
ATOM      6  O   UNL     1      -2.156   2.251 -21.427  0.00  0.00    -0.441 OA
ATOM      7  C   UNL     1      -3.410   2.583 -21.353  0.00  0.00    +0.198 A 
ATOM      8  C   UNL     1      -3.955   3.286 -22.301  0.00  0.00    +0.118 A 
ATOM      9  C   UNL     1      -3.244   3.658 -23.324  0.00  0.00    +0.205 A 
ATOM     10  O   UNL     1      -3.788   4.362 -24.272  0.00  0.00    -0.286 OA
ATOM     11  C   UNL     1      -1.990   3.327 -23.398  0.00  0.00    +0.065 A 
ATOM     12  C   UNL     1      -1.279   3.700 -24.421  0.00  0.00    +0.018 A 
ENDROOT
BRANCH   7  13
ATOM     13  N   UNL     1      -4.121   2.210 -20.329  0.00  0.00    -0.329 N 
ATOM     14  H   UNL     1      -4.674   2.867 -19.848  0.00  0.00    +0.145 HD
ATOM     15  H   UNL     1      -4.106   1.271 -20.036  0.00  0.00    +0.145 HD
ENDBRANCH   7  13
BRANCH   8  16
ATOM     16  C   UNL     1      -5.210   3.617 -22.226  0.00  0.00    +0.267 C 
ATOM     17  O   UNL     1      -6.125   2.694 -22.194  0.00  0.00    -0.295 OA
ENDBRANCH   8  16
TORSDOF 2
ENDMDL
