MODEL 1
REMARK VINA RESULT:   -10.276      0.000      0.000
REMARK INTER + INTRA:         -11.465
REMARK INTER:                 -11.769
REMARK INTRA:                   0.304
REMARK UNBOUND:                 0.313
REMARK  Name = ZINC000013382850
REMARK  5 active torsions:
REMARK  status: ('A' for Active; 'I' for Inactive)
REMARK    1  A    between atoms: C_1  and  C_2
REMARK    2  A    between atoms: C_2  and  C_3
REMARK    3  A    between atoms: C_3  and  O_4
REMARK    4  A    between atoms: C_20  and  O_21
REMARK    5  A    between atoms: O_21  and  C_22
REMARK                            x       y       z     vdW  Elec       q    Type
REMARK                         _______ _______ _______ _____ _____    ______ ____
ROOT
ATOM      1  C   UNL     1      -3.863   3.650 -24.731  0.00  0.00    +0.188 C 
ATOM      2  C   UNL     1      -5.122   3.906 -24.539  0.00  0.00    +0.344 C 
ATOM      3  O   UNL     1      -5.653   3.717 -23.367  0.00  0.00    -0.457 OA
ATOM      4  C   UNL     1      -4.924   3.272 -22.388  0.00  0.00    +0.273 C 
ATOM      5  C   UNL     1      -3.664   3.015 -22.579  0.00  0.00    +0.061 A 
ATOM      6  C   UNL     1      -2.935   2.570 -21.599  0.00  0.00    +0.259 A 
ATOM      7  O   UNL     1      -3.466   2.381 -20.428  0.00  0.00    -0.267 OA
ATOM      8  N   UNL     1      -1.674   2.313 -21.791  0.00  0.00    -0.302 N 
ATOM      9  C   UNL     1      -0.747   1.870 -20.996  0.00  0.00    +0.162 C 
ATOM     10  C   UNL     1       0.357   1.784 -21.677  0.00  0.00    +0.000 A 
ATOM     11  C   UNL     1       1.555   1.401 -21.347  0.00  0.00    +0.021 A 
ATOM     12  C   UNL     1       2.507   1.409 -22.232  0.00  0.00    +0.042 A 
ATOM     13  C   UNL     1       3.705   1.025 -21.903  0.00  0.00    +0.129 A 
ATOM     14  C   UNL     1       4.657   1.033 -22.788  0.00  0.00    +0.046 A 
ATOM     15  C   UNL     1       4.411   1.424 -24.003  0.00  0.00    +0.006 A 
ATOM     16  C   UNL     1       3.214   1.807 -24.333  0.00  0.00    +0.028 A 
ATOM     17  C   UNL     1       2.262   1.800 -23.448  0.00  0.00    +0.075 A 
ATOM     18  N   UNL     1       1.064   2.183 -23.778  0.00  0.00    -0.245 NA
ATOM     19  C   UNL     1       0.112   2.175 -22.892  0.00  0.00    +0.093 A 
ATOM     20  C   UNL     1      -1.144   2.502 -22.963  0.00  0.00    +0.071 A 
ATOM     21  C   UNL     1      -1.873   2.948 -23.943  0.00  0.00    +0.035 A 
ATOM     22  O   UNL     1      -5.852   4.352 -25.519  0.00  0.00    -0.247 OA
ATOM     23  C   UNL     1      -3.133   3.204 -23.751  0.00  0.00    +0.008 A 
ENDROOT
BRANCH   1  25
ATOM     24  C   UNL     1      -3.529   3.639 -26.957  0.00  0.00    +0.007 C 
ATOM     25  C   UNL     1      -4.194   4.055 -25.921  0.00  0.00    +0.048 C 
ENDBRANCH   1  25
BRANCH  13  26
ATOM     26  O   UNL     1       3.950   0.634 -20.687  0.00  0.00    -0.494 OA
ATOM     27  C   UNL     1       5.058   0.009 -20.417  0.00  0.00    +0.277 C 
ENDBRANCH  13  26
BRANCH   1  28
ATOM     28  O   UNL     1      -2.718   3.534 -25.336  0.00  0.00    -0.373 OA
ATOM     29  H   UNL     1      -2.367   2.641 -25.195  0.00  0.00    +0.211 HD
ENDBRANCH   1  28
TORSDOF 3
ENDMDL
MODEL 2
REMARK VINA RESULT:   -10.267      1.543      3.259
REMARK INTER + INTRA:         -11.454
REMARK INTER:                 -11.728
REMARK INTRA:                   0.274
REMARK UNBOUND:                 0.313
REMARK  Name = ZINC000013382850
REMARK  5 active torsions:
REMARK  status: ('A' for Active; 'I' for Inactive)
REMARK    1  A    between atoms: C_1  and  C_2
REMARK    2  A    between atoms: C_2  and  C_3
REMARK    3  A    between atoms: C_3  and  O_4
REMARK    4  A    between atoms: C_20  and  O_21
REMARK    5  A    between atoms: O_21  and  C_22
REMARK                            x       y       z     vdW  Elec       q    Type
REMARK                         _______ _______ _______ _____ _____    ______ ____
ROOT
ATOM      1  C   UNL     1      -4.070   3.031 -22.370  0.00  0.00    +0.188 C 
ATOM      2  C   UNL     1      -5.228   3.346 -22.870  0.00  0.00    +0.344 C 
ATOM      3  O   UNL     1      -5.313   3.778 -24.093  0.00  0.00    -0.457 OA
ATOM      4  C   UNL     1      -4.239   3.894 -24.816  0.00  0.00    +0.273 C 
ATOM      5  C   UNL     1      -3.080   3.579 -24.316  0.00  0.00    +0.061 A 
ATOM      6  C   UNL     1      -2.007   3.696 -25.040  0.00  0.00    +0.259 A 
ATOM      7  O   UNL     1      -2.092   4.128 -26.264  0.00  0.00    -0.267 OA
ATOM      8  N   UNL     1      -0.848   3.381 -24.540  0.00  0.00    -0.302 N 
ATOM      9  C   UNL     1       0.351   3.406 -25.042  0.00  0.00    +0.162 C 
ATOM     10  C   UNL     1       1.176   2.990 -24.127  0.00  0.00    +0.000 A 
ATOM     11  C   UNL     1       2.466   2.831 -24.128  0.00  0.00    +0.021 A 
ATOM     12  C   UNL     1       3.068   2.390 -23.063  0.00  0.00    +0.042 A 
ATOM     13  C   UNL     1       4.357   2.231 -23.063  0.00  0.00    +0.129 A 
ATOM     14  C   UNL     1       4.959   1.790 -21.998  0.00  0.00    +0.046 A 
ATOM     15  C   UNL     1       4.269   1.509 -20.932  0.00  0.00    +0.006 A 
ATOM     16  C   UNL     1       2.979   1.667 -20.932  0.00  0.00    +0.028 A 
ATOM     17  C   UNL     1       2.378   2.108 -21.997  0.00  0.00    +0.075 A 
ATOM     18  N   UNL     1       1.088   2.267 -21.996  0.00  0.00    -0.245 NA
ATOM     19  C   UNL     1       0.487   2.708 -23.062  0.00  0.00    +0.093 A 
ATOM     20  C   UNL     1      -0.765   2.950 -23.317  0.00  0.00    +0.071 A 
ATOM     21  C   UNL     1      -1.838   2.833 -22.593  0.00  0.00    +0.035 A 
ATOM     22  O   UNL     1      -6.302   3.229 -22.145  0.00  0.00    -0.247 OA
ATOM     23  C   UNL     1      -2.996   3.148 -23.093  0.00  0.00    +0.008 A 
ENDROOT
BRANCH   1  25
ATOM     24  C   UNL     1      -4.331   2.226 -20.284  0.00  0.00    +0.007 C 
ATOM     25  C   UNL     1      -4.834   2.774 -21.349  0.00  0.00    +0.048 C 
ENDBRANCH   1  25
BRANCH  13  26
ATOM     26  O   UNL     1       5.047   2.513 -24.129  0.00  0.00    -0.494 OA
ATOM     27  C   UNL     1       6.109   3.259 -24.039  0.00  0.00    +0.277 C 
ENDBRANCH  13  26
BRANCH   1  28
ATOM     28  O   UNL     1      -3.178   2.627 -21.515  0.00  0.00    -0.373 OA
ATOM     29  H   UNL     1      -3.280   3.118 -20.685  0.00  0.00    +0.211 HD
ENDBRANCH   1  28
TORSDOF 3
ENDMDL
MODEL 3
REMARK VINA RESULT:   -10.031      1.527      7.830
REMARK INTER + INTRA:         -11.184
REMARK INTER:                 -12.155
REMARK INTRA:                   0.971
REMARK UNBOUND:                 0.313
REMARK  Name = ZINC000013382850
REMARK  5 active torsions:
REMARK  status: ('A' for Active; 'I' for Inactive)
REMARK    1  A    between atoms: C_1  and  C_2
REMARK    2  A    between atoms: C_2  and  C_3
REMARK    3  A    between atoms: C_3  and  O_4
REMARK    4  A    between atoms: C_20  and  O_21
REMARK    5  A    between atoms: O_21  and  C_22
REMARK                            x       y       z     vdW  Elec       q    Type
REMARK                         _______ _______ _______ _____ _____    ______ ____
ROOT
ATOM      1  C   UNL     1       3.058   1.212 -22.090  0.00  0.00    +0.188 C 
ATOM      2  C   UNL     1       4.289   1.142 -22.501  0.00  0.00    +0.344 C 
ATOM      3  O   UNL     1       4.621   1.651 -23.650  0.00  0.00    -0.457 OA
ATOM      4  C   UNL     1       3.722   2.231 -24.388  0.00  0.00    +0.273 C 
ATOM      5  C   UNL     1       2.490   2.301 -23.977  0.00  0.00    +0.061 A 
ATOM      6  C   UNL     1       1.591   2.881 -24.715  0.00  0.00    +0.259 A 
ATOM      7  O   UNL     1       1.923   3.391 -25.864  0.00  0.00    -0.267 OA
ATOM      8  N   UNL     1       0.359   2.952 -24.304  0.00  0.00    -0.302 N 
ATOM      9  C   UNL     1      -0.708   3.466 -24.839  0.00  0.00    +0.162 C 
ATOM     10  C   UNL     1      -1.700   3.274 -24.020  0.00  0.00    +0.000 A 
ATOM     11  C   UNL     1      -2.958   3.594 -24.088  0.00  0.00    +0.021 A 
ATOM     12  C   UNL     1      -3.762   3.281 -23.115  0.00  0.00    +0.042 A 
ATOM     13  C   UNL     1      -5.019   3.601 -23.183  0.00  0.00    +0.129 A 
ATOM     14  C   UNL     1      -5.823   3.288 -22.210  0.00  0.00    +0.046 A 
ATOM     15  C   UNL     1      -5.368   2.655 -21.169  0.00  0.00    +0.006 A 
ATOM     16  C   UNL     1      -4.111   2.335 -21.101  0.00  0.00    +0.028 A 
ATOM     17  C   UNL     1      -3.307   2.648 -22.074  0.00  0.00    +0.075 A 
ATOM     18  N   UNL     1      -2.048   2.328 -22.006  0.00  0.00    -0.245 NA
ATOM     19  C   UNL     1      -1.246   2.641 -22.980  0.00  0.00    +0.093 A 
ATOM     20  C   UNL     1       0.028   2.442 -23.155  0.00  0.00    +0.071 A 
ATOM     21  C   UNL     1       0.927   1.862 -22.417  0.00  0.00    +0.035 A 
ATOM     22  O   UNL     1       5.189   0.562 -21.762  0.00  0.00    -0.247 OA
ATOM     23  C   UNL     1       2.158   1.792 -22.828  0.00  0.00    +0.008 A 
ENDROOT
BRANCH   1  25
ATOM     24  C   UNL     1       3.063   0.668 -19.905  0.00  0.00    +0.007 C 
ATOM     25  C   UNL     1       3.595   0.580 -21.088  0.00  0.00    +0.048 C 
ENDBRANCH   1  25
BRANCH  13  26
ATOM     26  O   UNL     1      -5.474   4.234 -24.223  0.00  0.00    -0.494 OA
ATOM     27  C   UNL     1      -5.576   3.620 -25.365  0.00  0.00    +0.277 C 
ENDBRANCH  13  26
BRANCH   1  28
ATOM     28  O   UNL     1       2.013   1.062 -21.331  0.00  0.00    -0.373 OA
ATOM     29  H   UNL     1       1.520   1.897 -21.293  0.00  0.00    +0.211 HD
ENDBRANCH   1  28
TORSDOF 3
ENDMDL
MODEL 4
REMARK VINA RESULT:    -9.463      1.893      7.549
REMARK INTER + INTRA:         -10.533
REMARK INTER:                 -11.471
REMARK INTRA:                   0.938
REMARK UNBOUND:                 0.313
REMARK  Name = ZINC000013382850
REMARK  5 active torsions:
REMARK  status: ('A' for Active; 'I' for Inactive)
REMARK    1  A    between atoms: C_1  and  C_2
REMARK    2  A    between atoms: C_2  and  C_3
REMARK    3  A    between atoms: C_3  and  O_4
REMARK    4  A    between atoms: C_20  and  O_21
REMARK    5  A    between atoms: O_21  and  C_22
REMARK                            x       y       z     vdW  Elec       q    Type
REMARK                         _______ _______ _______ _____ _____    ______ ____
ROOT
ATOM      1  C   UNL     1       4.607   2.831 -22.808  0.00  0.00    +0.188 C 
ATOM      2  C   UNL     1       5.708   2.426 -22.248  0.00  0.00    +0.344 C 
ATOM      3  O   UNL     1       5.662   1.713 -21.162  0.00  0.00    -0.457 OA
ATOM      4  C   UNL     1       4.514   1.405 -20.636  0.00  0.00    +0.273 C 
ATOM      5  C   UNL     1       3.412   1.810 -21.196  0.00  0.00    +0.061 A 
ATOM      6  C   UNL     1       2.264   1.501 -20.668  0.00  0.00    +0.259 A 
ATOM      7  O   UNL     1       2.218   0.788 -19.582  0.00  0.00    -0.267 OA
ATOM      8  N   UNL     1       1.162   1.905 -21.228  0.00  0.00    -0.302 N 
ATOM      9  C   UNL     1      -0.087   1.738 -20.911  0.00  0.00    +0.162 C 
ATOM     10  C   UNL     1      -0.812   2.347 -21.801  0.00  0.00    +0.000 A 
ATOM     11  C   UNL     1      -2.099   2.477 -21.934  0.00  0.00    +0.021 A 
ATOM     12  C   UNL     1      -2.585   3.151 -22.934  0.00  0.00    +0.042 A 
ATOM     13  C   UNL     1      -3.871   3.280 -23.066  0.00  0.00    +0.129 A 
ATOM     14  C   UNL     1      -4.357   3.954 -24.066  0.00  0.00    +0.046 A 
ATOM     15  C   UNL     1      -3.556   4.499 -24.934  0.00  0.00    +0.006 A 
ATOM     16  C   UNL     1      -2.270   4.369 -24.801  0.00  0.00    +0.028 A 
ATOM     17  C   UNL     1      -1.784   3.695 -23.801  0.00  0.00    +0.075 A 
ATOM     18  N   UNL     1      -0.497   3.565 -23.668  0.00  0.00    -0.245 NA
ATOM     19  C   UNL     1      -0.012   2.892 -22.668  0.00  0.00    +0.093 A 
ATOM     20  C   UNL     1       1.209   2.618 -22.314  0.00  0.00    +0.071 A 
ATOM     21  C   UNL     1       2.357   2.927 -22.841  0.00  0.00    +0.035 A 
ATOM     22  O   UNL     1       6.856   2.735 -22.775  0.00  0.00    -0.247 OA
ATOM     23  C   UNL     1       3.458   2.523 -22.282  0.00  0.00    +0.008 A 
ENDROOT
BRANCH   1  25
ATOM     24  C   UNL     1       5.683   4.625 -23.640  0.00  0.00    +0.007 C 
ATOM     25  C   UNL     1       5.477   3.342 -23.628  0.00  0.00    +0.048 C 
ENDBRANCH   1  25
BRANCH  13  26
ATOM     26  O   UNL     1      -4.673   2.736 -22.199  0.00  0.00    -0.494 OA
ATOM     27  C   UNL     1      -5.904   3.144 -22.105  0.00  0.00    +0.277 C 
ENDBRANCH  13  26
BRANCH   1  28
ATOM     28  O   UNL     1       3.808   3.413 -23.652  0.00  0.00    -0.373 OA
ATOM     29  H   UNL     1       3.679   4.338 -23.390  0.00  0.00    +0.211 HD
ENDBRANCH   1  28
TORSDOF 3
ENDMDL
MODEL 5
REMARK VINA RESULT:    -8.271      5.522      6.968
REMARK INTER + INTRA:          -9.166
REMARK INTER:                  -9.513
REMARK INTRA:                   0.347
REMARK UNBOUND:                 0.313
REMARK  Name = ZINC000013382850
REMARK  5 active torsions:
REMARK  status: ('A' for Active; 'I' for Inactive)
REMARK    1  A    between atoms: C_1  and  C_2
REMARK    2  A    between atoms: C_2  and  C_3
REMARK    3  A    between atoms: C_3  and  O_4
REMARK    4  A    between atoms: C_20  and  O_21
REMARK    5  A    between atoms: O_21  and  C_22
REMARK                            x       y       z     vdW  Elec       q    Type
REMARK                         _______ _______ _______ _____ _____    ______ ____
ROOT
ATOM      1  C   UNL     1       0.502   4.008 -23.633  0.00  0.00    +0.188 C 
ATOM      2  C   UNL     1       0.017   2.895 -24.097  0.00  0.00    +0.344 C 
ATOM      3  O   UNL     1       0.815   1.917 -24.409  0.00  0.00    -0.457 OA
ATOM      4  C   UNL     1       2.098   2.053 -24.255  0.00  0.00    +0.273 C 
ATOM      5  C   UNL     1       2.584   3.166 -23.791  0.00  0.00    +0.061 A 
ATOM      6  C   UNL     1       3.868   3.301 -23.638  0.00  0.00    +0.259 A 
ATOM      7  O   UNL     1       4.666   2.323 -23.949  0.00  0.00    -0.267 OA
ATOM      8  N   UNL     1       4.354   4.414 -23.173  0.00  0.00    -0.302 N 
ATOM      9  C   UNL     1       5.572   4.797 -22.931  0.00  0.00    +0.162 C 
ATOM     10  C   UNL     1       5.526   6.011 -22.469  0.00  0.00    +0.000 A 
ATOM     11  C   UNL     1       6.459   6.831 -22.082  0.00  0.00    +0.021 A 
ATOM     12  C   UNL     1       6.145   8.017 -21.653  0.00  0.00    +0.042 A 
ATOM     13  C   UNL     1       7.078   8.836 -21.266  0.00  0.00    +0.129 A 
ATOM     14  C   UNL     1       6.764  10.022 -20.837  0.00  0.00    +0.046 A 
ATOM     15  C   UNL     1       5.517  10.389 -20.795  0.00  0.00    +0.006 A 
ATOM     16  C   UNL     1       4.585   9.571 -21.182  0.00  0.00    +0.028 A 
ATOM     17  C   UNL     1       4.899   8.384 -21.611  0.00  0.00    +0.075 A 
ATOM     18  N   UNL     1       3.966   7.565 -21.998  0.00  0.00    -0.245 NA
ATOM     19  C   UNL     1       4.280   6.379 -22.427  0.00  0.00    +0.093 A 
ATOM     20  C   UNL     1       3.555   5.391 -22.863  0.00  0.00    +0.071 A 
ATOM     21  C   UNL     1       2.271   5.257 -23.015  0.00  0.00    +0.035 A 
ATOM     22  O   UNL     1      -1.268   2.760 -24.251  0.00  0.00    -0.247 OA
ATOM     23  C   UNL     1       1.786   4.144 -23.480  0.00  0.00    +0.008 A 
ENDROOT
BRANCH   1  25
ATOM     24  C   UNL     1      -1.233   5.148 -22.763  0.00  0.00    +0.007 C 
ATOM     25  C   UNL     1      -0.766   4.294 -23.624  0.00  0.00    +0.048 C 
ENDBRANCH   1  25
BRANCH  13  26
ATOM     26  O   UNL     1       8.324   8.468 -21.308  0.00  0.00    -0.494 OA
ATOM     27  C   UNL     1       9.062   8.548 -20.240  0.00  0.00    +0.277 C 
ENDBRANCH  13  26
BRANCH   1  28
ATOM     28  O   UNL     1       0.547   5.220 -23.166  0.00  0.00    -0.373 OA
ATOM     29  H   UNL     1      -0.235   5.383 -22.615  0.00  0.00    +0.211 HD
ENDBRANCH   1  28
TORSDOF 3
ENDMDL
MODEL 6
REMARK VINA RESULT:    -7.605      6.367      8.894
REMARK INTER + INTRA:          -8.403
REMARK INTER:                  -9.209
REMARK INTRA:                   0.806
REMARK UNBOUND:                 0.313
REMARK  Name = ZINC000013382850
REMARK  5 active torsions:
REMARK  status: ('A' for Active; 'I' for Inactive)
REMARK    1  A    between atoms: C_1  and  C_2
REMARK    2  A    between atoms: C_2  and  C_3
REMARK    3  A    between atoms: C_3  and  O_4
REMARK    4  A    between atoms: C_20  and  O_21
REMARK    5  A    between atoms: O_21  and  C_22
REMARK                            x       y       z     vdW  Elec       q    Type
REMARK                         _______ _______ _______ _____ _____    ______ ____
ROOT
ATOM      1  C   UNL     1       5.124   9.783 -21.349  0.00  0.00    +0.188 C 
ATOM      2  C   UNL     1       6.158  10.459 -20.944  0.00  0.00    +0.344 C 
ATOM      3  O   UNL     1       7.322   9.885 -20.870  0.00  0.00    -0.457 OA
ATOM      4  C   UNL     1       7.452   8.635 -21.201  0.00  0.00    +0.273 C 
ATOM      5  C   UNL     1       6.417   7.958 -21.606  0.00  0.00    +0.061 A 
ATOM      6  C   UNL     1       6.548   6.708 -21.937  0.00  0.00    +0.259 A 
ATOM      7  O   UNL     1       7.712   6.133 -21.863  0.00  0.00    -0.267 OA
ATOM      8  N   UNL     1       5.513   6.031 -22.342  0.00  0.00    -0.302 N 
ATOM      9  C   UNL     1       5.377   4.796 -22.723  0.00  0.00    +0.162 C 
ATOM     10  C   UNL     1       4.128   4.608 -23.033  0.00  0.00    +0.000 A 
ATOM     11  C   UNL     1       3.487   3.562 -23.464  0.00  0.00    +0.021 A 
ATOM     12  C   UNL     1       2.212   3.634 -23.704  0.00  0.00    +0.042 A 
ATOM     13  C   UNL     1       1.571   2.589 -24.135  0.00  0.00    +0.129 A 
ATOM     14  C   UNL     1       0.296   2.661 -24.375  0.00  0.00    +0.046 A 
ATOM     15  C   UNL     1      -0.339   3.780 -24.185  0.00  0.00    +0.006 A 
ATOM     16  C   UNL     1       0.302   4.826 -23.755  0.00  0.00    +0.028 A 
ATOM     17  C   UNL     1       1.577   4.753 -23.514  0.00  0.00    +0.075 A 
ATOM     18  N   UNL     1       2.218   5.800 -23.084  0.00  0.00    -0.245 NA
ATOM     19  C   UNL     1       3.493   5.726 -22.844  0.00  0.00    +0.093 A 
ATOM     20  C   UNL     1       4.350   6.607 -22.416  0.00  0.00    +0.071 A 
ATOM     21  C   UNL     1       4.219   7.857 -22.085  0.00  0.00    +0.035 A 
ATOM     22  O   UNL     1       6.028  11.710 -20.613  0.00  0.00    -0.247 OA
ATOM     23  C   UNL     1       5.253   8.533 -21.680  0.00  0.00    +0.008 A 
ENDROOT
BRANCH   1  25
ATOM     24  C   UNL     1       3.520  11.293 -21.815  0.00  0.00    +0.007 C 
ATOM     25  C   UNL     1       4.568  10.939 -21.133  0.00  0.00    +0.048 C 
ENDBRANCH   1  25
BRANCH  13  26
ATOM     26  O   UNL     1       2.206   1.470 -24.324  0.00  0.00    -0.494 OA
ATOM     27  C   UNL     1       2.474   0.695 -23.315  0.00  0.00    +0.277 C 
ENDBRANCH  13  26
BRANCH   1  28
ATOM     28  O   UNL     1       3.897   9.509 -21.679  0.00  0.00    -0.373 OA
ATOM     29  H   UNL     1       3.328   9.584 -20.898  0.00  0.00    +0.211 HD
ENDBRANCH   1  28
TORSDOF 3
ENDMDL
