MODEL 1
REMARK VINA RESULT:    -9.817      0.000      0.000
REMARK INTER + INTRA:          -9.817
REMARK INTER:                  -9.817
REMARK INTRA:                   0.000
REMARK UNBOUND:                 0.000
REMARK  Name = ZINC000000338172
REMARK  2 active torsions:
REMARK  status: ('A' for Active; 'I' for Inactive)
REMARK    1  A    between atoms: C_1  and  N_2
REMARK    2  A    between atoms: N_2  and  C_3
REMARK                            x       y       z     vdW  Elec       q    Type
REMARK                         _______ _______ _______ _____ _____    ______ ____
ROOT
ATOM      1  C   UNL     1       2.226   2.637 -24.265  0.00  0.00    +0.193 C 
ATOM      2  N   UNL     1       0.950   2.711 -24.029  0.00  0.00    +0.245 N 
ATOM      3  C   UNL     1       1.383   2.411 -22.841  0.00  0.00    +0.138 C 
ATOM      4  C   UNL     1       0.542   2.281 -21.857  0.00  0.00    +0.086 C 
ATOM      5  C   UNL     1      -0.730   2.450 -22.062  0.00  0.00    -0.030 A 
ATOM      6  C   UNL     1      -1.570   2.320 -21.078  0.00  0.00    +0.054 A 
ATOM      7  C   UNL     1      -2.843   2.489 -21.283  0.00  0.00    +0.167 A 
ATOM      8  C   UNL     1      -3.275   2.790 -22.472  0.00  0.00    +0.174 A 
ATOM      9  O   UNL     1      -4.568   2.904 -22.412  0.00  0.00    -0.452 OA
ATOM     10  C   UNL     1      -4.936   2.674 -21.186  0.00  0.00    +0.466 C 
ATOM     11  C   UNL     1      -2.435   2.920 -23.456  0.00  0.00    +0.037 A 
ATOM     12  C   UNL     1      -2.867   3.220 -24.644  0.00  0.00    -0.010 A 
ATOM     13  C   UNL     1      -4.140   3.390 -24.849  0.00  0.00    +0.009 A 
ATOM     14  C   UNL     1      -4.573   3.690 -26.038  0.00  0.00    +0.001 A 
ATOM     15  C   UNL     1      -3.733   3.821 -27.021  0.00  0.00    +0.000 A 
ATOM     16  C   UNL     1      -2.460   3.651 -26.816  0.00  0.00    +0.004 A 
ATOM     17  C   UNL     1      -2.028   3.351 -25.628  0.00  0.00    -0.034 A 
ATOM     18  C   UNL     1      -0.754   3.181 -25.423  0.00  0.00    +0.095 C 
ATOM     19  O   UNL     1      -3.869   2.418 -20.489  0.00  0.00    -0.453 OA
ATOM     20  C   UNL     1      -1.162   2.750 -23.250  0.00  0.00    +0.015 A 
ATOM     21  C   UNL     1       0.961   2.986 -25.300  0.00  0.00    +0.193 C 
ATOM     22  C   UNL     1      -0.322   2.881 -24.235  0.00  0.00    +0.102 C 
ENDROOT
TORSDOF 0
ENDMDL
MODEL 2
REMARK VINA RESULT:    -9.713      1.451      3.897
REMARK INTER + INTRA:          -9.713
REMARK INTER:                  -9.713
REMARK INTRA:                   0.000
REMARK UNBOUND:                 0.000
REMARK  Name = ZINC000000338172
REMARK  2 active torsions:
REMARK  status: ('A' for Active; 'I' for Inactive)
REMARK    1  A    between atoms: C_1  and  N_2
REMARK    2  A    between atoms: N_2  and  C_3
REMARK                            x       y       z     vdW  Elec       q    Type
REMARK                         _______ _______ _______ _____ _____    ______ ____
ROOT
ATOM      1  C   UNL     1       1.626   1.781 -21.618  0.00  0.00    +0.193 C 
ATOM      2  N   UNL     1       0.514   2.121 -22.200  0.00  0.00    +0.245 N 
ATOM      3  C   UNL     1       1.340   2.252 -23.196  0.00  0.00    +0.138 C 
ATOM      4  C   UNL     1       0.900   2.637 -24.357  0.00  0.00    +0.086 C 
ATOM      5  C   UNL     1      -0.365   2.890 -24.523  0.00  0.00    -0.030 A 
ATOM      6  C   UNL     1      -0.804   3.274 -25.684  0.00  0.00    +0.054 A 
ATOM      7  C   UNL     1      -2.069   3.527 -25.850  0.00  0.00    +0.167 A 
ATOM      8  C   UNL     1      -2.893   3.395 -24.854  0.00  0.00    +0.174 A 
ATOM      9  O   UNL     1      -4.084   3.704 -25.274  0.00  0.00    -0.452 OA
ATOM     10  C   UNL     1      -3.995   4.027 -26.530  0.00  0.00    +0.466 C 
ATOM     11  C   UNL     1      -2.454   3.010 -23.691  0.00  0.00    +0.037 A 
ATOM     12  C   UNL     1      -3.279   2.879 -22.696  0.00  0.00    -0.010 A 
ATOM     13  C   UNL     1      -4.543   3.131 -22.862  0.00  0.00    +0.009 A 
ATOM     14  C   UNL     1      -5.369   3.000 -21.866  0.00  0.00    +0.001 A 
ATOM     15  C   UNL     1      -4.929   2.615 -20.704  0.00  0.00    +0.000 A 
ATOM     16  C   UNL     1      -3.664   2.362 -20.539  0.00  0.00    +0.004 A 
ATOM     17  C   UNL     1      -2.840   2.494 -21.534  0.00  0.00    -0.034 A 
ATOM     18  C   UNL     1      -1.575   2.241 -21.369  0.00  0.00    +0.095 C 
ATOM     19  O   UNL     1      -2.750   3.918 -26.886  0.00  0.00    -0.453 OA
ATOM     20  C   UNL     1      -1.189   2.758 -23.527  0.00  0.00    +0.015 A 
ATOM     21  C   UNL     1       0.076   1.871 -21.001  0.00  0.00    +0.193 C 
ATOM     22  C   UNL     1      -0.750   2.373 -22.364  0.00  0.00    +0.102 C 
ENDROOT
TORSDOF 0
ENDMDL
MODEL 3
REMARK VINA RESULT:    -8.694      2.305      4.195
REMARK INTER + INTRA:          -8.694
REMARK INTER:                  -8.694
REMARK INTRA:                   0.000
REMARK UNBOUND:                 0.000
REMARK  Name = ZINC000000338172
REMARK  2 active torsions:
REMARK  status: ('A' for Active; 'I' for Inactive)
REMARK    1  A    between atoms: C_1  and  N_2
REMARK    2  A    between atoms: N_2  and  C_3
REMARK                            x       y       z     vdW  Elec       q    Type
REMARK                         _______ _______ _______ _____ _____    ______ ____
ROOT
ATOM      1  C   UNL     1      -4.801   3.196 -20.588  0.00  0.00    +0.193 C 
ATOM      2  N   UNL     1      -3.950   3.206 -21.571  0.00  0.00    +0.245 N 
ATOM      3  C   UNL     1      -3.135   3.069 -20.567  0.00  0.00    +0.138 C 
ATOM      4  C   UNL     1      -1.855   2.988 -20.777  0.00  0.00    +0.086 C 
ATOM      5  C   UNL     1      -1.389   3.045 -21.990  0.00  0.00    -0.030 A 
ATOM      6  C   UNL     1      -0.109   2.964 -22.198  0.00  0.00    +0.054 A 
ATOM      7  C   UNL     1       0.357   3.021 -23.412  0.00  0.00    +0.167 A 
ATOM      8  C   UNL     1      -0.458   3.159 -24.415  0.00  0.00    +0.174 A 
ATOM      9  O   UNL     1       0.247   3.188 -25.505  0.00  0.00    -0.452 OA
ATOM     10  C   UNL     1       1.500   3.069 -25.177  0.00  0.00    +0.466 C 
ATOM     11  C   UNL     1      -1.740   3.240 -24.206  0.00  0.00    +0.037 A 
ATOM     12  C   UNL     1      -2.555   3.377 -25.208  0.00  0.00    -0.010 A 
ATOM     13  C   UNL     1      -2.089   3.434 -26.421  0.00  0.00    +0.009 A 
ATOM     14  C   UNL     1      -2.904   3.571 -27.425  0.00  0.00    +0.001 A 
ATOM     15  C   UNL     1      -4.185   3.652 -27.215  0.00  0.00    +0.000 A 
ATOM     16  C   UNL     1      -4.650   3.595 -26.002  0.00  0.00    +0.004 A 
ATOM     17  C   UNL     1      -3.835   3.458 -25.000  0.00  0.00    -0.034 A 
ATOM     18  C   UNL     1      -4.301   3.401 -23.786  0.00  0.00    +0.095 C 
ATOM     19  O   UNL     1       1.567   2.966 -23.883  0.00  0.00    -0.453 OA
ATOM     20  C   UNL     1      -2.204   3.182 -22.992  0.00  0.00    +0.015 A 
ATOM     21  C   UNL     1      -5.061   3.340 -22.232  0.00  0.00    +0.193 C 
ATOM     22  C   UNL     1      -3.486   3.263 -22.783  0.00  0.00    +0.102 C 
ENDROOT
TORSDOF 0
ENDMDL
MODEL 4
REMARK VINA RESULT:    -8.488      1.428      4.128
REMARK INTER + INTRA:          -8.488
REMARK INTER:                  -8.488
REMARK INTRA:                   0.000
REMARK UNBOUND:                 0.000
REMARK  Name = ZINC000000338172
REMARK  2 active torsions:
REMARK  status: ('A' for Active; 'I' for Inactive)
REMARK    1  A    between atoms: C_1  and  N_2
REMARK    2  A    between atoms: N_2  and  C_3
REMARK                            x       y       z     vdW  Elec       q    Type
REMARK                         _______ _______ _______ _____ _____    ______ ____
ROOT
ATOM      1  C   UNL     1      -3.727   3.620 -27.585  0.00  0.00    +0.193 C 
ATOM      2  N   UNL     1      -3.335   3.544 -26.348  0.00  0.00    +0.245 N 
ATOM      3  C   UNL     1      -4.616   3.680 -26.172  0.00  0.00    +0.138 C 
ATOM      4  C   UNL     1      -5.108   3.702 -24.969  0.00  0.00    +0.086 C 
ATOM      5  C   UNL     1      -4.319   3.589 -23.942  0.00  0.00    -0.030 A 
ATOM      6  C   UNL     1      -4.811   3.611 -22.739  0.00  0.00    +0.054 A 
ATOM      7  C   UNL     1      -4.021   3.497 -21.711  0.00  0.00    +0.167 A 
ATOM      8  C   UNL     1      -2.741   3.362 -21.888  0.00  0.00    +0.174 A 
ATOM      9  O   UNL     1      -2.181   3.270 -20.718  0.00  0.00    -0.452 OA
ATOM     10  C   UNL     1      -3.116   3.349 -19.818  0.00  0.00    +0.466 C 
ATOM     11  C   UNL     1      -2.248   3.340 -23.092  0.00  0.00    +0.037 A 
ATOM     12  C   UNL     1      -0.968   3.204 -23.268  0.00  0.00    -0.010 A 
ATOM     13  C   UNL     1      -0.179   3.090 -22.241  0.00  0.00    +0.009 A 
ATOM     14  C   UNL     1       1.102   2.955 -22.417  0.00  0.00    +0.001 A 
ATOM     15  C   UNL     1       1.593   2.933 -23.621  0.00  0.00    +0.000 A 
ATOM     16  C   UNL     1       0.804   3.046 -24.648  0.00  0.00    +0.004 A 
ATOM     17  C   UNL     1      -0.476   3.182 -24.471  0.00  0.00    -0.034 A 
ATOM     18  C   UNL     1      -1.266   3.295 -25.498  0.00  0.00    +0.095 C 
ATOM     19  O   UNL     1      -4.253   3.489 -20.432  0.00  0.00    -0.453 OA
ATOM     20  C   UNL     1      -3.038   3.453 -24.118  0.00  0.00    +0.015 A 
ATOM     21  C   UNL     1      -2.191   3.435 -26.955  0.00  0.00    +0.193 C 
ATOM     22  C   UNL     1      -2.546   3.431 -25.322  0.00  0.00    +0.102 C 
ENDROOT
TORSDOF 0
ENDMDL
MODEL 5
REMARK VINA RESULT:    -8.026      2.304      4.382
REMARK INTER + INTRA:          -8.026
REMARK INTER:                  -8.026
REMARK INTRA:                   0.000
REMARK UNBOUND:                 0.000
REMARK  Name = ZINC000000338172
REMARK  2 active torsions:
REMARK  status: ('A' for Active; 'I' for Inactive)
REMARK    1  A    between atoms: C_1  and  N_2
REMARK    2  A    between atoms: N_2  and  C_3
REMARK                            x       y       z     vdW  Elec       q    Type
REMARK                         _______ _______ _______ _____ _____    ______ ____
ROOT
ATOM      1  C   UNL     1      -4.862   3.634 -23.319  0.00  0.00    +0.193 C 
ATOM      2  N   UNL     1      -3.600   3.365 -23.160  0.00  0.00    +0.245 N 
ATOM      3  C   UNL     1      -4.068   2.931 -22.027  0.00  0.00    +0.138 C 
ATOM      4  C   UNL     1      -3.264   2.412 -21.148  0.00  0.00    +0.086 C 
ATOM      5  C   UNL     1      -1.992   2.326 -21.400  0.00  0.00    -0.030 A 
ATOM      6  C   UNL     1      -1.189   1.806 -20.520  0.00  0.00    +0.054 A 
ATOM      7  C   UNL     1       0.085   1.720 -20.774  0.00  0.00    +0.167 A 
ATOM      8  C   UNL     1       0.553   2.153 -21.906  0.00  0.00    +0.174 A 
ATOM      9  O   UNL     1       1.837   1.955 -21.912  0.00  0.00    -0.452 OA
ATOM     10  C   UNL     1       2.163   1.399 -20.783  0.00  0.00    +0.466 C 
ATOM     11  C   UNL     1      -0.251   2.673 -22.787  0.00  0.00    +0.037 A 
ATOM     12  C   UNL     1       0.217   3.106 -23.919  0.00  0.00    -0.010 A 
ATOM     13  C   UNL     1       1.489   3.020 -24.171  0.00  0.00    +0.009 A 
ATOM     14  C   UNL     1       1.958   3.453 -25.304  0.00  0.00    +0.001 A 
ATOM     15  C   UNL     1       1.154   3.973 -26.184  0.00  0.00    +0.000 A 
ATOM     16  C   UNL     1      -0.119   4.059 -25.931  0.00  0.00    +0.004 A 
ATOM     17  C   UNL     1      -0.587   3.626 -24.799  0.00  0.00    -0.034 A 
ATOM     18  C   UNL     1      -1.860   3.712 -24.546  0.00  0.00    +0.095 C 
ATOM     19  O   UNL     1       1.080   1.254 -20.080  0.00  0.00    -0.453 OA
ATOM     20  C   UNL     1      -1.524   2.759 -22.533  0.00  0.00    +0.015 A 
ATOM     21  C   UNL     1      -3.570   3.891 -24.348  0.00  0.00    +0.193 C 
ATOM     22  C   UNL     1      -2.328   3.279 -23.413  0.00  0.00    +0.102 C 
ENDROOT
TORSDOF 0
ENDMDL
MODEL 6
REMARK VINA RESULT:    -7.688      4.046      7.060
REMARK INTER + INTRA:          -7.688
REMARK INTER:                  -7.688
REMARK INTRA:                   0.000
REMARK UNBOUND:                 0.000
REMARK  Name = ZINC000000338172
REMARK  2 active torsions:
REMARK  status: ('A' for Active; 'I' for Inactive)
REMARK    1  A    between atoms: C_1  and  N_2
REMARK    2  A    between atoms: N_2  and  C_3
REMARK                            x       y       z     vdW  Elec       q    Type
REMARK                         _______ _______ _______ _____ _____    ______ ____
ROOT
ATOM      1  C   UNL     1       0.107   4.865 -23.953  0.00  0.00    +0.193 C 
ATOM      2  N   UNL     1       1.132   4.252 -23.441  0.00  0.00    +0.245 N 
ATOM      3  C   UNL     1       0.210   3.358 -23.239  0.00  0.00    +0.138 C 
ATOM      4  C   UNL     1       0.510   2.236 -22.656  0.00  0.00    +0.086 C 
ATOM      5  C   UNL     1       1.731   2.006 -22.275  0.00  0.00    -0.030 A 
ATOM      6  C   UNL     1       2.030   0.883 -21.692  0.00  0.00    +0.054 A 
ATOM      7  C   UNL     1       3.253   0.654 -21.311  0.00  0.00    +0.167 A 
ATOM      8  C   UNL     1       4.174   1.548 -21.513  0.00  0.00    +0.174 A 
ATOM      9  O   UNL     1       5.295   1.082 -21.047  0.00  0.00    -0.452 OA
ATOM     10  C   UNL     1       5.065  -0.100 -20.556  0.00  0.00    +0.466 C 
ATOM     11  C   UNL     1       3.875   2.671 -22.096  0.00  0.00    +0.037 A 
ATOM     12  C   UNL     1       4.797   3.565 -22.298  0.00  0.00    -0.010 A 
ATOM     13  C   UNL     1       6.019   3.335 -21.917  0.00  0.00    +0.009 A 
ATOM     14  C   UNL     1       6.941   4.229 -22.119  0.00  0.00    +0.001 A 
ATOM     15  C   UNL     1       6.642   5.352 -22.702  0.00  0.00    +0.000 A 
ATOM     16  C   UNL     1       5.420   5.581 -23.083  0.00  0.00    +0.004 A 
ATOM     17  C   UNL     1       4.498   4.688 -22.881  0.00  0.00    -0.034 A 
ATOM     18  C   UNL     1       3.276   4.917 -23.262  0.00  0.00    +0.095 C 
ATOM     19  O   UNL     1       3.803  -0.364 -20.720  0.00  0.00    -0.453 OA
ATOM     20  C   UNL     1       2.653   2.900 -22.477  0.00  0.00    +0.015 A 
ATOM     21  C   UNL     1       1.698   5.359 -23.821  0.00  0.00    +0.193 C 
ATOM     22  C   UNL     1       2.354   4.023 -23.060  0.00  0.00    +0.102 C 
ENDROOT
TORSDOF 0
ENDMDL
