MODEL 1
REMARK VINA RESULT:   -12.349      0.000      0.000
REMARK INTER + INTRA:         -11.176
REMARK INTER:                 -11.721
REMARK INTRA:                   0.546
REMARK UNBOUND:                 4.061
REMARK  Name = ZINC000002048997
REMARK  5 active torsions:
REMARK  status: ('A' for Active; 'I' for Inactive)
REMARK    1  A    between atoms: C_1  and  C_2
REMARK    2  A    between atoms: C_6  and  C_7
REMARK    3  A    between atoms: C_8  and  N_9
REMARK    4  A    between atoms: C_8  and  C_18
REMARK    5  A    between atoms: C_10  and  C_12
REMARK                            x       y       z     vdW  Elec       q    Type
REMARK                         _______ _______ _______ _____ _____    ______ ____
ROOT
ATOM      1  C   UNL     1       3.355   3.658 -22.580  0.00  0.00    +0.044 C 
ATOM      2  C   UNL     1       2.729   4.714 -23.095  0.00  0.00    +0.097 C 
ENDROOT
BRANCH   2   3
ATOM      3  C   UNL     1       1.842   4.569 -24.082  0.00  0.00    +0.261 C 
ATOM      4  N   UNL     1       0.528   4.402 -23.808  0.00  0.00    -0.296 N 
ATOM      5  C   UNL     1      -0.410   4.250 -24.766  0.00  0.00    +0.117 C 
ATOM      6  C   UNL     1      -1.616   4.103 -24.294  0.00  0.00    +0.054 C 
ATOM      7  C   UNL     1      -1.632   4.128 -23.348  0.00  0.00    +0.018 C 
ATOM      8  C   UNL     1      -1.239   4.204 -22.487  0.00  0.00    +0.027 C 
ATOM      9  C   UNL     1      -2.272   4.084 -21.892  0.00  0.00    +0.130 C 
ATOM     10  N   UNL     1      -3.374   3.906 -23.001  0.00  0.00    -0.312 N 
ATOM     11  C   UNL     1      -4.635   3.743 -22.855  0.00  0.00    +0.251 A 
ATOM     12  O   UNL     1      -5.154   3.708 -21.658  0.00  0.00    -0.268 OA
ATOM     13  C   UNL     1      -5.409   3.610 -23.930  0.00  0.00    +0.070 A 
ATOM     14  C   UNL     1      -4.901   3.642 -25.188  0.00  0.00    +0.007 A 
ATOM     15  C   UNL     1      -3.601   3.808 -25.406  0.00  0.00    +0.022 A 
ATOM     16  C   UNL     1      -2.799   3.943 -24.417  0.00  0.00    +0.027 A 
ATOM     17  C   UNL     1       0.049   4.374 -22.548  0.00  0.00    +0.113 C 
ATOM     18  O   UNL     1       2.252   4.588 -25.323  0.00  0.00    -0.269 OA
ENDBRANCH   2   3
BRANCH   1  24
ATOM     19  C   UNL     1       1.881   1.608 -21.248  0.00  0.00    +0.045 C 
ATOM     20  C   UNL     1       2.441   1.513 -22.424  0.00  0.00    -0.036 A 
ATOM     21  C   UNL     1       2.423   0.461 -23.195  0.00  0.00    +0.011 A 
ATOM     22  C   UNL     1       3.088   0.750 -24.285  0.00  0.00    +0.046 A 
ATOM     23  S   UNL     1       3.512   1.978 -24.179  0.00  0.00    -0.097 S 
ATOM     24  C   UNL     1       3.114   2.452 -23.030  0.00  0.00    +0.017 A 
ENDBRANCH   1  24
BRANCH   2  25
ATOM     25  N   UNL     1       2.990   5.900 -22.626  0.00  0.00    -0.277 N 
ATOM     26  H   UNL     1       2.252   6.508 -22.390  0.00  0.00    +0.155 HD
ATOM     27  C   UNL     1       4.231   6.285 -22.468  0.00  0.00    +0.248 C 
ATOM     28  O   UNL     1       5.215   5.483 -22.780  0.00  0.00    -0.270 OA
BRANCH  27  29
ATOM     29  C   UNL     1       4.482   7.472 -21.999  0.00  0.00    +0.037 A 
ATOM     30  C   UNL     1       3.805   8.507 -22.417  0.00  0.00    +0.013 A 
ATOM     31  C   UNL     1       4.063   9.692 -21.942  0.00  0.00    +0.001 A 
ATOM     32  C   UNL     1       5.001   9.849 -21.046  0.00  0.00    +0.000 A 
ATOM     33  C   UNL     1       5.678   8.814 -20.628  0.00  0.00    +0.001 A 
ATOM     34  C   UNL     1       5.420   7.627 -21.103  0.00  0.00    +0.013 A 
ENDBRANCH  27  29
ENDBRANCH   2  25
TORSDOF 4
ENDMDL
MODEL 2
REMARK VINA RESULT:   -10.690      1.463      2.074
REMARK INTER + INTRA:          -9.129
REMARK INTER:                  -9.269
REMARK INTRA:                   0.140
REMARK UNBOUND:                 4.061
REMARK  Name = ZINC000002048997
REMARK  5 active torsions:
REMARK  status: ('A' for Active; 'I' for Inactive)
REMARK    1  A    between atoms: C_1  and  C_2
REMARK    2  A    between atoms: C_6  and  C_7
REMARK    3  A    between atoms: C_8  and  N_9
REMARK    4  A    between atoms: C_8  and  C_18
REMARK    5  A    between atoms: C_10  and  C_12
REMARK                            x       y       z     vdW  Elec       q    Type
REMARK                         _______ _______ _______ _____ _____    ______ ____
ROOT
ATOM      1  C   UNL     1       3.621   3.512 -24.104  0.00  0.00    +0.044 C 
ATOM      2  C   UNL     1       3.004   4.135 -23.103  0.00  0.00    +0.097 C 
ENDROOT
BRANCH   2   3
ATOM      3  C   UNL     1       2.073   3.510 -22.380  0.00  0.00    +0.261 C 
ATOM      4  N   UNL     1       0.760   3.659 -22.669  0.00  0.00    -0.296 N 
ATOM      5  C   UNL     1      -0.221   3.050 -21.971  0.00  0.00    +0.117 C 
ATOM      6  C   UNL     1      -1.417   3.323 -22.409  0.00  0.00    +0.054 C 
ATOM      7  C   UNL     1      -1.397   3.909 -23.152  0.00  0.00    +0.018 C 
ATOM      8  C   UNL     1      -0.969   4.449 -23.805  0.00  0.00    +0.027 C 
ATOM      9  C   UNL     1      -1.987   4.802 -24.330  0.00  0.00    +0.130 C 
ATOM     10  N   UNL     1      -3.139   4.097 -23.523  0.00  0.00    -0.312 N 
ATOM     11  C   UNL     1      -4.403   4.168 -23.710  0.00  0.00    +0.251 A 
ATOM     12  O   UNL     1      -4.880   4.901 -24.677  0.00  0.00    -0.268 OA
ATOM     13  C   UNL     1      -5.224   3.489 -22.911  0.00  0.00    +0.070 A 
ATOM     14  C   UNL     1      -4.760   2.717 -21.895  0.00  0.00    +0.007 A 
ATOM     15  C   UNL     1      -3.459   2.602 -21.650  0.00  0.00    +0.022 A 
ATOM     16  C   UNL     1      -2.613   3.229 -22.380  0.00  0.00    +0.027 A 
ATOM     17  C   UNL     1       0.326   4.432 -23.684  0.00  0.00    +0.113 C 
ATOM     18  O   UNL     1       2.439   2.746 -21.382  0.00  0.00    -0.269 OA
ENDBRANCH   2   3
BRANCH   1  24
ATOM     19  C   UNL     1       1.666   2.630 -25.988  0.00  0.00    +0.045 C 
ATOM     20  C   UNL     1       2.436   1.864 -25.262  0.00  0.00    -0.036 A 
ATOM     21  C   UNL     1       2.444   0.560 -25.273  0.00  0.00    +0.011 A 
ATOM     22  C   UNL     1       3.347   0.157 -24.416  0.00  0.00    +0.046 A 
ATOM     23  S   UNL     1       3.889   1.213 -23.881  0.00  0.00    -0.097 S 
ATOM     24  C   UNL     1       3.329   2.271 -24.402  0.00  0.00    +0.017 A 
ENDBRANCH   1  24
BRANCH   2  25
ATOM     25  N   UNL     1       3.316   5.369 -22.831  0.00  0.00    -0.277 N 
ATOM     26  H   UNL     1       2.654   6.085 -22.968  0.00  0.00    +0.155 HD
ATOM     27  C   UNL     1       4.509   5.660 -22.378  0.00  0.00    +0.248 C 
ATOM     28  O   UNL     1       5.393   4.714 -22.194  0.00  0.00    -0.270 OA
BRANCH  27  29
ATOM     29  C   UNL     1       4.813   6.895 -22.109  0.00  0.00    +0.037 A 
ATOM     30  C   UNL     1       3.899   7.827 -22.154  0.00  0.00    +0.013 A 
ATOM     31  C   UNL     1       4.212   9.063 -21.884  0.00  0.00    +0.001 A 
ATOM     32  C   UNL     1       5.441   9.373 -21.566  0.00  0.00    +0.000 A 
ATOM     33  C   UNL     1       6.355   8.441 -21.521  0.00  0.00    +0.001 A 
ATOM     34  C   UNL     1       6.042   7.205 -21.792  0.00  0.00    +0.013 A 
ENDBRANCH  27  29
ENDBRANCH   2  25
TORSDOF 4
ENDMDL
