MODEL 1
REMARK VINA RESULT:   -11.802      0.000      0.000
REMARK INTER + INTRA:         -12.147
REMARK INTER:                 -12.147
REMARK INTRA:                   0.000
REMARK UNBOUND:                 0.000
REMARK  Name = ZINC000005529900
REMARK  3 active torsions:
REMARK  status: ('A' for Active; 'I' for Inactive)
REMARK    1  A    between atoms: C_1  and  C_2
REMARK    2  A    between atoms: C_15  and  C_16
REMARK    3  A    between atoms: C_20  and  O_21
REMARK                            x       y       z     vdW  Elec       q    Type
REMARK                         _______ _______ _______ _____ _____    ______ ____
ROOT
ATOM      1  C   UNL     1      -4.904   3.048 -21.872  0.00  0.00    +0.014 C 
ATOM      2  C   UNL     1      -4.002   3.255 -22.784  0.00  0.00    -0.003 C 
ATOM      3  C   UNL     1      -3.549   2.667 -21.717  0.00  0.00    +0.010 C 
ATOM      4  C   UNL     1      -2.293   2.342 -21.637  0.00  0.00    +0.005 C 
ATOM      5  C   UNL     1      -1.489   2.606 -22.624  0.00  0.00    -0.001 C 
ATOM      6  C   UNL     1      -1.941   3.194 -23.691  0.00  0.00    -0.004 C 
ATOM      7  C   UNL     1      -1.138   3.458 -24.678  0.00  0.00    +0.004 C 
ATOM      8  C   UNL     1       0.119   3.133 -24.598  0.00  0.00    +0.005 C 
ATOM      9  C   UNL     1       0.571   2.545 -23.531  0.00  0.00    +0.002 C 
ATOM     10  C   UNL     1       1.827   2.220 -23.451  0.00  0.00    +0.078 C 
ATOM     11  C   UNL     1       2.279   1.632 -22.383  0.00  0.00    +0.134 C 
ATOM     12  C   UNL     1       1.476   1.368 -21.396  0.00  0.00    +0.075 C 
ATOM     13  C   UNL     1       0.220   1.693 -21.476  0.00  0.00    +0.015 C 
ATOM     14  O   UNL     1       3.536   1.307 -22.303  0.00  0.00    -0.297 OA
ATOM     15  C   UNL     1      -0.233   2.281 -22.544  0.00  0.00    -0.025 C 
ATOM     16  C   UNL     1      -1.037   2.017 -21.557  0.00  0.00    +0.012 C 
ATOM     17  C   UNL     1      -5.188   3.675 -23.109  0.00  0.00    +0.121 C 
ATOM     18  C   UNL     1      -5.118   4.199 -24.297  0.00  0.00    +0.032 C 
ATOM     19  C   UNL     1      -3.888   4.102 -24.706  0.00  0.00    +0.007 C 
ATOM     20  C   UNL     1      -3.198   3.519 -23.772  0.00  0.00    +0.001 C 
ENDROOT
BRANCH  17  21
ATOM     21  O   UNL     1      -6.258   3.588 -22.376  0.00  0.00    -0.391 OA
ATOM     22  H   UNL     1      -7.038   3.785 -22.916  0.00  0.00    +0.210 HD
ENDBRANCH  17  21
TORSDOF 1
ENDMDL
MODEL 2
REMARK VINA RESULT:   -11.610      0.886      2.497
REMARK INTER + INTRA:         -11.949
REMARK INTER:                 -11.949
REMARK INTRA:                   0.000
REMARK UNBOUND:                 0.000
REMARK  Name = ZINC000005529900
REMARK  3 active torsions:
REMARK  status: ('A' for Active; 'I' for Inactive)
REMARK    1  A    between atoms: C_1  and  C_2
REMARK    2  A    between atoms: C_15  and  C_16
REMARK    3  A    between atoms: C_20  and  O_21
REMARK                            x       y       z     vdW  Elec       q    Type
REMARK                         _______ _______ _______ _____ _____    ______ ____
ROOT
ATOM      1  C   UNL     1      -4.604   3.849 -23.855  0.00  0.00    +0.014 C 
ATOM      2  C   UNL     1      -3.750   3.294 -23.047  0.00  0.00    -0.003 C 
ATOM      3  C   UNL     1      -3.239   3.664 -24.183  0.00  0.00    +0.010 C 
ATOM      4  C   UNL     1      -1.977   3.465 -24.424  0.00  0.00    +0.005 C 
ATOM      5  C   UNL     1      -1.226   2.897 -23.528  0.00  0.00    -0.001 C 
ATOM      6  C   UNL     1      -1.737   2.527 -22.391  0.00  0.00    -0.004 C 
ATOM      7  C   UNL     1      -0.987   1.958 -21.495  0.00  0.00    +0.004 C 
ATOM      8  C   UNL     1       0.276   1.760 -21.736  0.00  0.00    +0.005 C 
ATOM      9  C   UNL     1       0.787   2.129 -22.873  0.00  0.00    +0.002 C 
ATOM     10  C   UNL     1       2.048   1.931 -23.113  0.00  0.00    +0.078 C 
ATOM     11  C   UNL     1       2.559   2.300 -24.250  0.00  0.00    +0.134 C 
ATOM     12  C   UNL     1       1.808   2.869 -25.146  0.00  0.00    +0.075 C 
ATOM     13  C   UNL     1       0.547   3.068 -24.906  0.00  0.00    +0.015 C 
ATOM     14  O   UNL     1       3.821   2.102 -24.491  0.00  0.00    -0.297 OA
ATOM     15  C   UNL     1       0.035   2.698 -23.768  0.00  0.00    -0.025 C 
ATOM     16  C   UNL     1      -0.715   3.266 -24.665  0.00  0.00    +0.012 C 
ATOM     17  C   UNL     1      -4.956   3.376 -22.567  0.00  0.00    +0.121 C 
ATOM     18  C   UNL     1      -4.950   2.858 -21.375  0.00  0.00    +0.032 C 
ATOM     19  C   UNL     1      -3.741   2.456 -21.117  0.00  0.00    +0.007 C 
ATOM     20  C   UNL     1      -3.000   2.726 -22.150  0.00  0.00    +0.001 C 
ENDROOT
BRANCH  17  21
ATOM     21  O   UNL     1      -5.987   3.886 -23.173  0.00  0.00    -0.391 OA
ATOM     22  H   UNL     1      -6.721   3.972 -22.546  0.00  0.00    +0.210 HD
ENDBRANCH  17  21
TORSDOF 1
ENDMDL
MODEL 3
REMARK VINA RESULT:   -11.302      1.036      2.486
REMARK INTER + INTRA:         -11.632
REMARK INTER:                 -11.632
REMARK INTRA:                   0.000
REMARK UNBOUND:                 0.000
REMARK  Name = ZINC000005529900
REMARK  3 active torsions:
REMARK  status: ('A' for Active; 'I' for Inactive)
REMARK    1  A    between atoms: C_1  and  C_2
REMARK    2  A    between atoms: C_15  and  C_16
REMARK    3  A    between atoms: C_20  and  O_21
REMARK                            x       y       z     vdW  Elec       q    Type
REMARK                         _______ _______ _______ _____ _____    ______ ____
ROOT
ATOM      1  C   UNL     1      -3.672   4.156 -25.723  0.00  0.00    +0.014 C 
ATOM      2  C   UNL     1      -3.435   3.696 -24.531  0.00  0.00    -0.003 C 
ATOM      3  C   UNL     1      -2.394   3.708 -25.309  0.00  0.00    +0.010 C 
ATOM      4  C   UNL     1      -1.248   3.282 -24.868  0.00  0.00    +0.005 C 
ATOM      5  C   UNL     1      -1.143   2.844 -23.648  0.00  0.00    -0.001 C 
ATOM      6  C   UNL     1      -2.184   2.832 -22.870  0.00  0.00    -0.004 C 
ATOM      7  C   UNL     1      -2.080   2.393 -21.651  0.00  0.00    +0.004 C 
ATOM      8  C   UNL     1      -0.933   1.967 -21.210  0.00  0.00    +0.005 C 
ATOM      9  C   UNL     1       0.108   1.980 -21.988  0.00  0.00    +0.002 C 
ATOM     10  C   UNL     1       1.254   1.554 -21.546  0.00  0.00    +0.078 C 
ATOM     11  C   UNL     1       2.295   1.566 -22.325  0.00  0.00    +0.134 C 
ATOM     12  C   UNL     1       2.191   2.004 -23.544  0.00  0.00    +0.075 C 
ATOM     13  C   UNL     1       1.045   2.430 -23.985  0.00  0.00    +0.015 C 
ATOM     14  O   UNL     1       3.442   1.140 -21.883  0.00  0.00    -0.297 OA
ATOM     15  C   UNL     1       0.003   2.418 -23.207  0.00  0.00    -0.025 C 
ATOM     16  C   UNL     1      -0.102   2.856 -24.427  0.00  0.00    +0.012 C 
ATOM     17  C   UNL     1      -4.669   4.058 -24.723  0.00  0.00    +0.121 C 
ATOM     18  C   UNL     1      -5.327   3.844 -23.622  0.00  0.00    +0.032 C 
ATOM     19  C   UNL     1      -4.500   3.349 -22.750  0.00  0.00    +0.007 C 
ATOM     20  C   UNL     1      -3.331   3.258 -23.312  0.00  0.00    +0.001 C 
ENDROOT
BRANCH  17  21
ATOM     21  O   UNL     1      -5.160   4.549 -25.822  0.00  0.00    -0.391 OA
ATOM     22  H   UNL     1      -5.191   5.516 -25.759  0.00  0.00    +0.210 HD
ENDBRANCH  17  21
TORSDOF 1
ENDMDL
MODEL 4
REMARK VINA RESULT:   -11.179      0.792      5.634
REMARK INTER + INTRA:         -11.506
REMARK INTER:                 -11.506
REMARK INTRA:                   0.000
REMARK UNBOUND:                 0.000
REMARK  Name = ZINC000005529900
REMARK  3 active torsions:
REMARK  status: ('A' for Active; 'I' for Inactive)
REMARK    1  A    between atoms: C_1  and  C_2
REMARK    2  A    between atoms: C_15  and  C_16
REMARK    3  A    between atoms: C_20  and  O_21
REMARK                            x       y       z     vdW  Elec       q    Type
REMARK                         _______ _______ _______ _____ _____    ______ ____
ROOT
ATOM      1  C   UNL     1       2.365   1.223 -21.882  0.00  0.00    +0.014 C 
ATOM      2  C   UNL     1       1.634   1.821 -22.774  0.00  0.00    -0.003 C 
ATOM      3  C   UNL     1       0.990   1.498 -21.692  0.00  0.00    +0.010 C 
ATOM      4  C   UNL     1      -0.275   1.779 -21.580  0.00  0.00    +0.005 C 
ATOM      5  C   UNL     1      -0.894   2.384 -22.550  0.00  0.00    -0.001 C 
ATOM      6  C   UNL     1      -0.250   2.707 -23.631  0.00  0.00    -0.004 C 
ATOM      7  C   UNL     1      -0.870   3.311 -24.601  0.00  0.00    +0.004 C 
ATOM      8  C   UNL     1      -2.135   3.592 -24.489  0.00  0.00    +0.005 C 
ATOM      9  C   UNL     1      -2.779   3.269 -23.407  0.00  0.00    +0.002 C 
ATOM     10  C   UNL     1      -4.043   3.551 -23.295  0.00  0.00    +0.078 C 
ATOM     11  C   UNL     1      -4.687   3.227 -22.213  0.00  0.00    +0.134 C 
ATOM     12  C   UNL     1      -4.067   2.623 -21.244  0.00  0.00    +0.075 C 
ATOM     13  C   UNL     1      -2.803   2.342 -21.355  0.00  0.00    +0.015 C 
ATOM     14  O   UNL     1      -5.951   3.509 -22.101  0.00  0.00    -0.297 OA
ATOM     15  C   UNL     1      -2.158   2.665 -22.438  0.00  0.00    -0.025 C 
ATOM     16  C   UNL     1      -1.539   2.060 -21.468  0.00  0.00    +0.012 C 
ATOM     17  C   UNL     1       2.874   1.657 -23.130  0.00  0.00    +0.121 C 
ATOM     18  C   UNL     1       3.020   2.161 -24.320  0.00  0.00    +0.032 C 
ATOM     19  C   UNL     1       1.871   2.635 -24.699  0.00  0.00    +0.007 C 
ATOM     20  C   UNL     1       1.014   2.426 -23.744  0.00  0.00    +0.001 C 
ENDROOT
BRANCH  17  21
ATOM     21  O   UNL     1       3.804   1.090 -22.421  0.00  0.00    -0.391 OA
ATOM     22  H   UNL     1       3.402   0.627 -21.671  0.00  0.00    +0.210 HD
ENDBRANCH  17  21
TORSDOF 1
ENDMDL
MODEL 5
REMARK VINA RESULT:   -10.693      0.948      6.183
REMARK INTER + INTRA:         -11.006
REMARK INTER:                 -11.006
REMARK INTRA:                   0.000
REMARK UNBOUND:                 0.000
REMARK  Name = ZINC000005529900
REMARK  3 active torsions:
REMARK  status: ('A' for Active; 'I' for Inactive)
REMARK    1  A    between atoms: C_1  and  C_2
REMARK    2  A    between atoms: C_15  and  C_16
REMARK    3  A    between atoms: C_20  and  O_21
REMARK                            x       y       z     vdW  Elec       q    Type
REMARK                         _______ _______ _______ _____ _____    ______ ____
ROOT
ATOM      1  C   UNL     1       2.867   2.391 -24.473  0.00  0.00    +0.014 C 
ATOM      2  C   UNL     1       2.031   2.186 -23.499  0.00  0.00    -0.003 C 
ATOM      3  C   UNL     1       1.495   2.732 -24.551  0.00  0.00    +0.010 C 
ATOM      4  C   UNL     1       0.228   3.021 -24.558  0.00  0.00    +0.005 C 
ATOM      5  C   UNL     1      -0.504   2.764 -23.515  0.00  0.00    -0.001 C 
ATOM      6  C   UNL     1       0.032   2.219 -22.464  0.00  0.00    -0.004 C 
ATOM      7  C   UNL     1      -0.700   1.962 -21.420  0.00  0.00    +0.004 C 
ATOM      8  C   UNL     1      -1.967   2.252 -21.428  0.00  0.00    +0.005 C 
ATOM      9  C   UNL     1      -2.503   2.797 -22.479  0.00  0.00    +0.002 C 
ATOM     10  C   UNL     1      -3.770   3.086 -22.487  0.00  0.00    +0.078 C 
ATOM     11  C   UNL     1      -4.306   3.632 -23.538  0.00  0.00    +0.134 C 
ATOM     12  C   UNL     1      -3.574   3.889 -24.581  0.00  0.00    +0.075 C 
ATOM     13  C   UNL     1      -2.307   3.600 -24.574  0.00  0.00    +0.015 C 
ATOM     14  O   UNL     1      -5.573   3.922 -23.546  0.00  0.00    -0.297 OA
ATOM     15  C   UNL     1      -1.771   3.054 -23.522  0.00  0.00    -0.025 C 
ATOM     16  C   UNL     1      -1.039   3.310 -24.566  0.00  0.00    +0.012 C 
ATOM     17  C   UNL     1       3.247   1.807 -23.240  0.00  0.00    +0.121 C 
ATOM     18  C   UNL     1       3.267   1.316 -22.037  0.00  0.00    +0.032 C 
ATOM     19  C   UNL     1       2.064   1.391 -21.552  0.00  0.00    +0.007 C 
ATOM     20  C   UNL     1       1.300   1.929 -22.456  0.00  0.00    +0.001 C 
ENDROOT
BRANCH  17  21
ATOM     21  O   UNL     1       4.265   1.901 -24.044  0.00  0.00    -0.391 OA
ATOM     22  H   UNL     1       4.642   1.021 -24.193  0.00  0.00    +0.210 HD
ENDBRANCH  17  21
TORSDOF 1
ENDMDL
MODEL 6
REMARK VINA RESULT:   -10.394      1.151      2.033
REMARK INTER + INTRA:         -10.698
REMARK INTER:                 -10.698
REMARK INTRA:                   0.000
REMARK UNBOUND:                 0.000
REMARK  Name = ZINC000005529900
REMARK  3 active torsions:
REMARK  status: ('A' for Active; 'I' for Inactive)
REMARK    1  A    between atoms: C_1  and  C_2
REMARK    2  A    between atoms: C_15  and  C_16
REMARK    3  A    between atoms: C_20  and  O_21
REMARK                            x       y       z     vdW  Elec       q    Type
REMARK                         _______ _______ _______ _____ _____    ______ ____
ROOT
ATOM      1  C   UNL     1      -2.885   2.604 -21.566  0.00  0.00    +0.014 C 
ATOM      2  C   UNL     1      -2.025   2.798 -22.522  0.00  0.00    -0.003 C 
ATOM      3  C   UNL     1      -1.534   2.190 -21.483  0.00  0.00    +0.010 C 
ATOM      4  C   UNL     1      -0.283   1.834 -21.469  0.00  0.00    +0.005 C 
ATOM      5  C   UNL     1       0.476   2.087 -22.493  0.00  0.00    -0.001 C 
ATOM      6  C   UNL     1      -0.015   2.695 -23.532  0.00  0.00    -0.004 C 
ATOM      7  C   UNL     1       0.744   2.948 -24.557  0.00  0.00    +0.004 C 
ATOM      8  C   UNL     1       1.995   2.593 -24.542  0.00  0.00    +0.005 C 
ATOM      9  C   UNL     1       2.486   1.985 -23.504  0.00  0.00    +0.002 C 
ATOM     10  C   UNL     1       3.736   1.630 -23.490  0.00  0.00    +0.078 C 
ATOM     11  C   UNL     1       4.227   1.022 -22.451  0.00  0.00    +0.134 C 
ATOM     12  C   UNL     1       3.468   0.768 -21.426  0.00  0.00    +0.075 C 
ATOM     13  C   UNL     1       2.218   1.124 -21.440  0.00  0.00    +0.015 C 
ATOM     14  O   UNL     1       5.478   0.666 -22.437  0.00  0.00    -0.297 OA
ATOM     15  C   UNL     1       1.726   1.732 -22.479  0.00  0.00    -0.025 C 
ATOM     16  C   UNL     1       0.967   1.479 -21.455  0.00  0.00    +0.012 C 
ATOM     17  C   UNL     1      -3.216   3.249 -22.783  0.00  0.00    +0.121 C 
ATOM     18  C   UNL     1      -3.193   3.780 -23.969  0.00  0.00    +0.032 C 
ATOM     19  C   UNL     1      -1.988   3.658 -24.441  0.00  0.00    +0.007 C 
ATOM     20  C   UNL     1      -1.266   3.051 -23.546  0.00  0.00    +0.001 C 
ENDROOT
BRANCH  17  21
ATOM     21  O   UNL     1      -4.249   3.180 -21.997  0.00  0.00    -0.391 OA
ATOM     22  H   UNL     1      -4.168   2.403 -21.424  0.00  0.00    +0.210 HD
ENDBRANCH  17  21
TORSDOF 1
ENDMDL
MODEL 7
REMARK VINA RESULT:   -10.311      1.785      6.387
REMARK INTER + INTRA:         -10.613
REMARK INTER:                 -10.613
REMARK INTRA:                   0.000
REMARK UNBOUND:                 0.000
REMARK  Name = ZINC000005529900
REMARK  3 active torsions:
REMARK  status: ('A' for Active; 'I' for Inactive)
REMARK    1  A    between atoms: C_1  and  C_2
REMARK    2  A    between atoms: C_15  and  C_16
REMARK    3  A    between atoms: C_20  and  O_21
REMARK                            x       y       z     vdW  Elec       q    Type
REMARK                         _______ _______ _______ _____ _____    ______ ____
ROOT
ATOM      1  C   UNL     1       4.223   0.790 -21.956  0.00  0.00    +0.014 C 
ATOM      2  C   UNL     1       3.684   1.874 -22.429  0.00  0.00    -0.003 C 
ATOM      3  C   UNL     1       2.833   1.052 -21.891  0.00  0.00    +0.010 C 
ATOM      4  C   UNL     1       1.568   1.351 -21.864  0.00  0.00    +0.005 C 
ATOM      5  C   UNL     1       1.155   2.473 -22.375  0.00  0.00    -0.001 C 
ATOM      6  C   UNL     1       2.006   3.295 -22.913  0.00  0.00    -0.004 C 
ATOM      7  C   UNL     1       1.592   4.417 -23.423  0.00  0.00    +0.004 C 
ATOM      8  C   UNL     1       0.327   4.716 -23.396  0.00  0.00    +0.005 C 
ATOM      9  C   UNL     1      -0.524   3.894 -22.858  0.00  0.00    +0.002 C 
ATOM     10  C   UNL     1      -1.788   4.193 -22.831  0.00  0.00    +0.078 C 
ATOM     11  C   UNL     1      -2.639   3.371 -22.293  0.00  0.00    +0.134 C 
ATOM     12  C   UNL     1      -2.226   2.249 -21.783  0.00  0.00    +0.075 C 
ATOM     13  C   UNL     1      -0.961   1.949 -21.810  0.00  0.00    +0.015 C 
ATOM     14  O   UNL     1      -3.904   3.670 -22.266  0.00  0.00    -0.297 OA
ATOM     15  C   UNL     1      -0.109   2.772 -22.348  0.00  0.00    -0.025 C 
ATOM     16  C   UNL     1       0.304   1.650 -21.837  0.00  0.00    +0.012 C 
ATOM     17  C   UNL     1       4.974   1.815 -22.582  0.00  0.00    +0.121 C 
ATOM     18  C   UNL     1       5.358   2.900 -23.187  0.00  0.00    +0.032 C 
ATOM     19  C   UNL     1       4.305   3.630 -23.408  0.00  0.00    +0.007 C 
ATOM     20  C   UNL     1       3.271   2.996 -22.940  0.00  0.00    +0.001 C 
ENDROOT
BRANCH  17  21
ATOM     21  O   UNL     1       5.746   0.841 -22.197  0.00  0.00    -0.391 OA
ATOM     22  H   UNL     1       5.257   0.005 -22.240  0.00  0.00    +0.210 HD
ENDBRANCH  17  21
TORSDOF 1
ENDMDL
MODEL 8
REMARK VINA RESULT:   -10.085      1.269      2.991
REMARK INTER + INTRA:         -10.380
REMARK INTER:                 -10.380
REMARK INTRA:                   0.000
REMARK UNBOUND:                 0.000
REMARK  Name = ZINC000005529900
REMARK  3 active torsions:
REMARK  status: ('A' for Active; 'I' for Inactive)
REMARK    1  A    between atoms: C_1  and  C_2
REMARK    2  A    between atoms: C_15  and  C_16
REMARK    3  A    between atoms: C_20  and  O_21
REMARK                            x       y       z     vdW  Elec       q    Type
REMARK                         _______ _______ _______ _____ _____    ______ ____
ROOT
ATOM      1  C   UNL     1      -2.636   4.231 -24.249  0.00  0.00    +0.014 C 
ATOM      2  C   UNL     1      -2.076   3.491 -23.339  0.00  0.00    -0.003 C 
ATOM      3  C   UNL     1      -1.236   4.046 -24.161  0.00  0.00    +0.010 C 
ATOM      4  C   UNL     1       0.040   3.836 -24.026  0.00  0.00    +0.005 C 
ATOM      5  C   UNL     1       0.475   3.071 -23.068  0.00  0.00    -0.001 C 
ATOM      6  C   UNL     1      -0.366   2.517 -22.246  0.00  0.00    -0.004 C 
ATOM      7  C   UNL     1       0.069   1.752 -21.289  0.00  0.00    +0.004 C 
ATOM      8  C   UNL     1       1.345   1.542 -21.154  0.00  0.00    +0.005 C 
ATOM      9  C   UNL     1       2.186   2.096 -21.976  0.00  0.00    +0.002 C 
ATOM     10  C   UNL     1       3.461   1.886 -21.840  0.00  0.00    +0.078 C 
ATOM     11  C   UNL     1       4.302   2.441 -22.662  0.00  0.00    +0.134 C 
ATOM     12  C   UNL     1       3.867   3.205 -23.619  0.00  0.00    +0.075 C 
ATOM     13  C   UNL     1       2.592   3.416 -23.755  0.00  0.00    +0.015 C 
ATOM     14  O   UNL     1       5.578   2.231 -22.527  0.00  0.00    -0.297 OA
ATOM     15  C   UNL     1       1.750   2.861 -22.933  0.00  0.00    -0.025 C 
ATOM     16  C   UNL     1       1.316   3.626 -23.890  0.00  0.00    +0.012 C 
ATOM     17  C   UNL     1      -3.373   3.538 -23.258  0.00  0.00    +0.121 C 
ATOM     18  C   UNL     1      -3.740   2.803 -22.250  0.00  0.00    +0.032 C 
ATOM     19  C   UNL     1      -2.670   2.301 -21.709  0.00  0.00    +0.007 C 
ATOM     20  C   UNL     1      -1.642   2.727 -22.382  0.00  0.00    +0.001 C 
ENDROOT
BRANCH  17  21
ATOM     21  O   UNL     1      -4.165   4.204 -24.045  0.00  0.00    -0.391 OA
ATOM     22  H   UNL     1      -4.404   3.652 -24.806  0.00  0.00    +0.210 HD
ENDBRANCH  17  21
TORSDOF 1
ENDMDL
MODEL 9
REMARK VINA RESULT:    -9.535      2.321      3.158
REMARK INTER + INTRA:          -9.814
REMARK INTER:                  -9.814
REMARK INTRA:                   0.000
REMARK UNBOUND:                 0.000
REMARK  Name = ZINC000005529900
REMARK  3 active torsions:
REMARK  status: ('A' for Active; 'I' for Inactive)
REMARK    1  A    between atoms: C_1  and  C_2
REMARK    2  A    between atoms: C_15  and  C_16
REMARK    3  A    between atoms: C_20  and  O_21
REMARK                            x       y       z     vdW  Elec       q    Type
REMARK                         _______ _______ _______ _____ _____    ______ ____
ROOT
ATOM      1  C   UNL     1      -4.277   3.047 -26.353  0.00  0.00    +0.014 C 
ATOM      2  C   UNL     1      -3.827   3.503 -25.222  0.00  0.00    -0.003 C 
ATOM      3  C   UNL     1      -2.899   3.243 -26.095  0.00  0.00    +0.010 C 
ATOM      4  C   UNL     1      -1.650   3.446 -25.796  0.00  0.00    +0.005 C 
ATOM      5  C   UNL     1      -1.329   3.908 -24.624  0.00  0.00    -0.001 C 
ATOM      6  C   UNL     1      -2.257   4.168 -23.751  0.00  0.00    -0.004 C 
ATOM      7  C   UNL     1      -1.936   4.630 -22.579  0.00  0.00    +0.004 C 
ATOM      8  C   UNL     1      -0.687   4.832 -22.280  0.00  0.00    +0.005 C 
ATOM      9  C   UNL     1       0.241   4.573 -23.153  0.00  0.00    +0.002 C 
ATOM     10  C   UNL     1       1.489   4.775 -22.854  0.00  0.00    +0.078 C 
ATOM     11  C   UNL     1       2.417   4.515 -23.727  0.00  0.00    +0.134 C 
ATOM     12  C   UNL     1       2.096   4.053 -24.899  0.00  0.00    +0.075 C 
ATOM     13  C   UNL     1       0.848   3.851 -25.198  0.00  0.00    +0.015 C 
ATOM     14  O   UNL     1       3.666   4.718 -23.428  0.00  0.00    -0.297 OA
ATOM     15  C   UNL     1      -0.081   4.110 -24.325  0.00  0.00    -0.025 C 
ATOM     16  C   UNL     1      -0.401   3.648 -25.497  0.00  0.00    +0.012 C 
ATOM     17  C   UNL     1      -5.121   3.392 -25.269  0.00  0.00    +0.121 C 
ATOM     18  C   UNL     1      -5.600   3.785 -24.126  0.00  0.00    +0.032 C 
ATOM     19  C   UNL     1      -4.602   4.140 -23.373  0.00  0.00    +0.007 C 
ATOM     20  C   UNL     1      -3.506   3.966 -24.050  0.00  0.00    +0.001 C 
ENDROOT
BRANCH  17  21
ATOM     21  O   UNL     1      -5.815   2.963 -26.281  0.00  0.00    -0.391 OA
ATOM     22  H   UNL     1      -6.751   3.179 -26.147  0.00  0.00    +0.210 HD
ENDBRANCH  17  21
TORSDOF 1
ENDMDL
