MODEL 1
REMARK VINA RESULT:    -9.066      0.000      0.000
REMARK INTER + INTRA:         -16.381
REMARK INTER:                 -14.622
REMARK INTRA:                  -1.760
REMARK UNBOUND:                 0.104
REMARK  Name = ZINC000034751324
REMARK  18 active torsions:
REMARK  status: ('A' for Active; 'I' for Inactive)
REMARK    1  A    between atoms: C_1  and  O_2
REMARK    2  A    between atoms: O_2  and  C_3
REMARK    3  A    between atoms: C_3  and  C_5
REMARK    4  A    between atoms: C_5  and  C_6
REMARK    5  A    between atoms: C_6  and  C_7
REMARK    6  A    between atoms: C_7  and  C_8
REMARK    7  A    between atoms: C_8  and  C_9
REMARK    8  A    between atoms: C_9  and  C_10
REMARK    9  A    between atoms: C_10  and  C_11
REMARK   10  A    between atoms: C_11  and  C_12
REMARK   11  A    between atoms: C_12  and  C_13
REMARK   12  A    between atoms: C_17  and  O_18
REMARK   13  A    between atoms: O_18  and  C_19
REMARK   14  A    between atoms: C_21  and  O_22
REMARK   15  A    between atoms: O_22  and  C_23
REMARK   16  A    between atoms: C_27  and  C_28
REMARK   17  A    between atoms: C_31  and  O_32
REMARK   18  A    between atoms: O_32  and  C_33
REMARK                            x       y       z     vdW  Elec       q    Type
REMARK                         _______ _______ _______ _____ _____    ______ ____
ROOT
ATOM      1  C   UNL     1       3.882   3.090 -23.289  0.00  0.00    +0.117 A 
ATOM      2  O   UNL     1       5.124   3.070 -22.907  0.00  0.00    -0.459 OA
ATOM      3  C   UNL     1       5.706   4.169 -22.530  0.00  0.00    +0.146 A 
ATOM      4  C   UNL     1       6.948   4.150 -22.147  0.00  0.00    +0.092 A 
ATOM      5  C   UNL     1       7.530   5.249 -21.770  0.00  0.00    +0.127 A 
ATOM      6  C   UNL     1       6.869   6.370 -21.775  0.00  0.00    +0.092 A 
ATOM      7  C   UNL     1       5.627   6.389 -22.158  0.00  0.00    +0.138 A 
ATOM      8  C   UNL     1       5.045   5.290 -22.535  0.00  0.00    +0.106 A 
ATOM      9  C   UNL     1       3.803   5.309 -22.918  0.00  0.00    +0.204 A 
ATOM     10  O   UNL     1       3.143   6.429 -22.924  0.00  0.00    -0.286 OA
ATOM     11  C   UNL     1       3.222   4.210 -23.295  0.00  0.00    +0.068 A 
ENDROOT
BRANCH  11  12
ATOM     12  C   UNL     1       1.980   4.230 -23.678  0.00  0.00    -0.011 A 
ATOM     13  C   UNL     1       1.648   3.742 -24.837  0.00  0.00    +0.012 A 
ATOM     14  C   UNL     1       0.406   3.762 -25.219  0.00  0.00    +0.046 A 
ATOM     15  C   UNL     1      -0.505   4.270 -24.444  0.00  0.00    +0.120 A 
ATOM     16  C   UNL     1      -0.174   4.758 -23.286  0.00  0.00    +0.046 A 
ATOM     17  C   UNL     1       1.069   4.738 -22.902  0.00  0.00    +0.012 A 
BRANCH  15  18
ATOM     18  O   UNL     1      -1.747   4.290 -24.827  0.00  0.00    -0.495 OA
ATOM     19  C   UNL     1      -2.161   3.458 -25.737  0.00  0.00    +0.277 C 
ENDBRANCH  15  18
ENDBRANCH  11  12
BRANCH   5  20
ATOM     20  O   UNL     1       8.772   5.230 -21.387  0.00  0.00    -0.495 OA
ATOM     21  C   UNL     1       9.062   5.235 -20.119  0.00  0.00    +0.277 C 
ENDBRANCH   5  20
BRANCH   7  22
ATOM     22  O   UNL     1       4.966   7.509 -22.163  0.00  0.00    -0.494 OA
ATOM     23  C   UNL     1       5.191   8.400 -21.244  0.00  0.00    +0.277 C 
ENDBRANCH   7  22
BRANCH   1  24
ATOM     24  C   UNL     1       3.300   1.990 -23.667  0.00  0.00    +0.075 C 
BRANCH  24  25
ATOM     25  C   UNL     1       3.204   0.990 -22.843  0.00  0.00    +0.008 C 
BRANCH  25  26
ATOM     26  C   UNL     1       2.321   1.016 -21.889  0.00  0.00    +0.000 C 
BRANCH  26  27
ATOM     27  C   UNL     1       1.055   1.079 -22.178  0.00  0.00    +0.000 C 
BRANCH  27  28
ATOM     28  C   UNL     1       0.208   1.526 -21.298  0.00  0.00    +0.000 C 
BRANCH  28  29
ATOM     29  C   UNL     1      -1.065   1.512 -21.556  0.00  0.00    +0.001 C 
BRANCH  29  30
ATOM     30  C   UNL     1      -1.785   2.571 -21.330  0.00  0.00    +0.011 C 
BRANCH  30  31
ATOM     31  C   UNL     1      -3.020   2.616 -21.735  0.00  0.00    +0.120 C 
BRANCH  31  32
ATOM     32  C   UNL     1      -3.843   3.476 -21.214  0.00  0.00    +0.307 C 
ATOM     33  O   UNL     1      -3.513   4.122 -20.136  0.00  0.00    -0.251 OA
BRANCH  32  35
ATOM     34  C   UNL     1      -5.121   3.607 -23.064  0.00  0.00    +0.280 C 
ATOM     35  O   UNL     1      -4.998   3.691 -21.772  0.00  0.00    -0.468 OA
ENDBRANCH  32  35
ENDBRANCH  31  32
ENDBRANCH  30  31
ENDBRANCH  29  30
ENDBRANCH  28  29
ENDBRANCH  27  28
ENDBRANCH  26  27
ENDBRANCH  25  26
ENDBRANCH  24  25
ENDBRANCH   1  24
TORSDOF 14
ENDMDL
MODEL 2
REMARK VINA RESULT:    -8.501      1.788      8.573
REMARK INTER + INTRA:         -15.354
REMARK INTER:                 -13.604
REMARK INTRA:                  -1.750
REMARK UNBOUND:                 0.104
REMARK  Name = ZINC000034751324
REMARK  18 active torsions:
REMARK  status: ('A' for Active; 'I' for Inactive)
REMARK    1  A    between atoms: C_1  and  O_2
REMARK    2  A    between atoms: O_2  and  C_3
REMARK    3  A    between atoms: C_3  and  C_5
REMARK    4  A    between atoms: C_5  and  C_6
REMARK    5  A    between atoms: C_6  and  C_7
REMARK    6  A    between atoms: C_7  and  C_8
REMARK    7  A    between atoms: C_8  and  C_9
REMARK    8  A    between atoms: C_9  and  C_10
REMARK    9  A    between atoms: C_10  and  C_11
REMARK   10  A    between atoms: C_11  and  C_12
REMARK   11  A    between atoms: C_12  and  C_13
REMARK   12  A    between atoms: C_17  and  O_18
REMARK   13  A    between atoms: O_18  and  C_19
REMARK   14  A    between atoms: C_21  and  O_22
REMARK   15  A    between atoms: O_22  and  C_23
REMARK   16  A    between atoms: C_27  and  C_28
REMARK   17  A    between atoms: C_31  and  O_32
REMARK   18  A    between atoms: O_32  and  C_33
REMARK                            x       y       z     vdW  Elec       q    Type
REMARK                         _______ _______ _______ _____ _____    ______ ____
ROOT
ATOM      1  C   UNL     1       0.553   3.143 -23.883  0.00  0.00    +0.117 A 
ATOM      2  O   UNL     1      -0.466   3.724 -24.442  0.00  0.00    -0.459 OA
ATOM      3  C   UNL     1      -1.659   3.552 -23.955  0.00  0.00    +0.146 A 
ATOM      4  C   UNL     1      -2.680   4.133 -24.513  0.00  0.00    +0.092 A 
ATOM      5  C   UNL     1      -3.872   3.962 -24.026  0.00  0.00    +0.127 A 
ATOM      6  C   UNL     1      -4.045   3.208 -22.980  0.00  0.00    +0.092 A 
ATOM      7  C   UNL     1      -3.025   2.628 -22.422  0.00  0.00    +0.138 A 
ATOM      8  C   UNL     1      -1.832   2.799 -22.908  0.00  0.00    +0.106 A 
ATOM      9  C   UNL     1      -0.812   2.219 -22.350  0.00  0.00    +0.204 A 
ATOM     10  O   UNL     1      -0.985   1.466 -21.304  0.00  0.00    -0.286 OA
ATOM     11  C   UNL     1       0.381   2.390 -22.837  0.00  0.00    +0.068 A 
ENDROOT
BRANCH  11  12
ATOM     12  C   UNL     1       1.400   1.809 -22.279  0.00  0.00    -0.011 A 
ATOM     13  C   UNL     1       1.708   2.081 -21.045  0.00  0.00    +0.012 A 
ATOM     14  C   UNL     1       2.728   1.500 -20.486  0.00  0.00    +0.046 A 
ATOM     15  C   UNL     1       3.440   0.647 -21.160  0.00  0.00    +0.120 A 
ATOM     16  C   UNL     1       3.133   0.375 -22.393  0.00  0.00    +0.046 A 
ATOM     17  C   UNL     1       2.113   0.956 -22.953  0.00  0.00    +0.012 A 
BRANCH  15  18
ATOM     18  O   UNL     1       4.460   0.066 -20.602  0.00  0.00    -0.495 OA
ATOM     19  C   UNL     1       5.643   0.179 -21.130  0.00  0.00    +0.277 C 
ENDBRANCH  15  18
ENDBRANCH  11  12
BRANCH   5  20
ATOM     20  O   UNL     1      -4.892   4.542 -24.584  0.00  0.00    -0.495 OA
ATOM     21  C   UNL     1      -5.625   3.890 -25.439  0.00  0.00    +0.277 C 
ENDBRANCH   5  20
BRANCH   7  22
ATOM     22  O   UNL     1      -3.198   1.875 -21.375  0.00  0.00    -0.494 OA
ATOM     23  C   UNL     1      -4.262   2.018 -20.641  0.00  0.00    +0.277 C 
ENDBRANCH   7  22
BRANCH   1  24
ATOM     24  C   UNL     1       1.747   3.314 -24.370  0.00  0.00    +0.075 C 
BRANCH  24  25
ATOM     25  C   UNL     1       2.307   4.486 -24.320  0.00  0.00    +0.008 C 
BRANCH  25  26
ATOM     26  C   UNL     1       2.968   4.846 -23.260  0.00  0.00    +0.000 C 
BRANCH  26  27
ATOM     27  C   UNL     1       4.262   4.732 -23.231  0.00  0.00    +0.000 C 
BRANCH  27  28
ATOM     28  C   UNL     1       4.809   3.632 -22.805  0.00  0.00    +0.000 C 
BRANCH  28  29
ATOM     29  C   UNL     1       6.046   3.364 -23.102  0.00  0.00    +0.001 C 
BRANCH  29  30
ATOM     30  C   UNL     1       7.003   3.771 -22.322  0.00  0.00    +0.011 C 
BRANCH  30  31
ATOM     31  C   UNL     1       6.813   3.832 -21.037  0.00  0.00    +0.120 C 
BRANCH  31  32
ATOM     32  C   UNL     1       7.211   4.873 -20.369  0.00  0.00    +0.307 C 
ATOM     33  O   UNL     1       8.382   4.875 -19.804  0.00  0.00    -0.251 OA
BRANCH  32  35
ATOM     34  C   UNL     1       6.872   7.085 -20.625  0.00  0.00    +0.280 C 
ATOM     35  O   UNL     1       6.438   5.913 -20.265  0.00  0.00    -0.468 OA
ENDBRANCH  32  35
ENDBRANCH  31  32
ENDBRANCH  30  31
ENDBRANCH  29  30
ENDBRANCH  28  29
ENDBRANCH  27  28
ENDBRANCH  26  27
ENDBRANCH  25  26
ENDBRANCH  24  25
ENDBRANCH   1  24
TORSDOF 14
ENDMDL
MODEL 3
REMARK VINA RESULT:    -7.094      2.253      8.405
REMARK INTER + INTRA:         -12.797
REMARK INTER:                 -12.498
REMARK INTRA:                  -0.299
REMARK UNBOUND:                 0.104
REMARK  Name = ZINC000034751324
REMARK  18 active torsions:
REMARK  status: ('A' for Active; 'I' for Inactive)
REMARK    1  A    between atoms: C_1  and  O_2
REMARK    2  A    between atoms: O_2  and  C_3
REMARK    3  A    between atoms: C_3  and  C_5
REMARK    4  A    between atoms: C_5  and  C_6
REMARK    5  A    between atoms: C_6  and  C_7
REMARK    6  A    between atoms: C_7  and  C_8
REMARK    7  A    between atoms: C_8  and  C_9
REMARK    8  A    between atoms: C_9  and  C_10
REMARK    9  A    between atoms: C_10  and  C_11
REMARK   10  A    between atoms: C_11  and  C_12
REMARK   11  A    between atoms: C_12  and  C_13
REMARK   12  A    between atoms: C_17  and  O_18
REMARK   13  A    between atoms: O_18  and  C_19
REMARK   14  A    between atoms: C_21  and  O_22
REMARK   15  A    between atoms: O_22  and  C_23
REMARK   16  A    between atoms: C_27  and  C_28
REMARK   17  A    between atoms: C_31  and  O_32
REMARK   18  A    between atoms: O_32  and  C_33
REMARK                            x       y       z     vdW  Elec       q    Type
REMARK                         _______ _______ _______ _____ _____    ______ ____
ROOT
ATOM      1  C   UNL     1       0.983   3.103 -23.900  0.00  0.00    +0.117 A 
ATOM      2  O   UNL     1       0.037   3.720 -24.543  0.00  0.00    -0.459 OA
ATOM      3  C   UNL     1      -1.197   3.609 -24.148  0.00  0.00    +0.146 A 
ATOM      4  C   UNL     1      -2.144   4.226 -24.790  0.00  0.00    +0.092 A 
ATOM      5  C   UNL     1      -3.377   4.115 -24.397  0.00  0.00    +0.127 A 
ATOM      6  C   UNL     1      -3.664   3.385 -23.358  0.00  0.00    +0.092 A 
ATOM      7  C   UNL     1      -2.718   2.768 -22.717  0.00  0.00    +0.138 A 
ATOM      8  C   UNL     1      -1.484   2.879 -23.110  0.00  0.00    +0.106 A 
ATOM      9  C   UNL     1      -0.538   2.262 -22.468  0.00  0.00    +0.204 A 
ATOM     10  O   UNL     1      -0.825   1.533 -21.431  0.00  0.00    -0.286 OA
ATOM     11  C   UNL     1       0.695   2.374 -22.863  0.00  0.00    +0.068 A 
ENDROOT
BRANCH  11  12
ATOM     12  C   UNL     1       1.642   1.756 -22.220  0.00  0.00    -0.011 A 
ATOM     13  C   UNL     1       2.323   0.819 -22.809  0.00  0.00    +0.012 A 
ATOM     14  C   UNL     1       3.269   0.201 -22.167  0.00  0.00    +0.046 A 
ATOM     15  C   UNL     1       3.534   0.521 -20.935  0.00  0.00    +0.120 A 
ATOM     16  C   UNL     1       2.853   1.458 -20.346  0.00  0.00    +0.046 A 
ATOM     17  C   UNL     1       1.907   2.076 -20.988  0.00  0.00    +0.012 A 
BRANCH  15  18
ATOM     18  O   UNL     1       4.480  -0.097 -20.292  0.00  0.00    -0.495 OA
ATOM     19  C   UNL     1       5.678  -0.156 -20.796  0.00  0.00    +0.277 C 
ENDBRANCH  15  18
ENDBRANCH  11  12
BRANCH   5  20
ATOM     20  O   UNL     1      -4.323   4.732 -25.038  0.00  0.00    -0.495 OA
ATOM     21  C   UNL     1      -5.569   4.495 -24.748  0.00  0.00    +0.277 C 
ENDBRANCH   5  20
BRANCH   7  22
ATOM     22  O   UNL     1      -3.006   2.039 -21.678  0.00  0.00    -0.494 OA
ATOM     23  C   UNL     1      -3.848   2.477 -20.790  0.00  0.00    +0.277 C 
ENDBRANCH   7  22
BRANCH   1  24
ATOM     24  C   UNL     1       2.217   3.214 -24.295  0.00  0.00    +0.075 C 
BRANCH  24  25
ATOM     25  C   UNL     1       3.029   4.016 -23.672  0.00  0.00    +0.008 C 
BRANCH  25  26
ATOM     26  C   UNL     1       2.769   5.288 -23.615  0.00  0.00    +0.000 C 
BRANCH  26  27
ATOM     27  C   UNL     1       2.991   5.948 -22.517  0.00  0.00    +0.000 C 
BRANCH  27  28
ATOM     28  C   UNL     1       3.845   6.928 -22.509  0.00  0.00    +0.000 C 
BRANCH  28  29
ATOM     29  C   UNL     1       5.059   6.728 -22.089  0.00  0.00    +0.001 C 
BRANCH  29  30
ATOM     30  C   UNL     1       5.628   7.601 -21.310  0.00  0.00    +0.011 C 
BRANCH  30  31
ATOM     31  C   UNL     1       4.918   8.544 -20.764  0.00  0.00    +0.120 C 
BRANCH  31  32
ATOM     32  C   UNL     1       5.385   9.756 -20.703  0.00  0.00    +0.307 C 
ATOM     33  O   UNL     1       6.668   9.956 -20.642  0.00  0.00    -0.251 OA
BRANCH  32  35
ATOM     34  C   UNL     1       3.725  10.921 -21.682  0.00  0.00    +0.280 C 
ATOM     35  O   UNL     1       4.569  10.767 -20.704  0.00  0.00    -0.468 OA
ENDBRANCH  32  35
ENDBRANCH  31  32
ENDBRANCH  30  31
ENDBRANCH  29  30
ENDBRANCH  28  29
ENDBRANCH  27  28
ENDBRANCH  26  27
ENDBRANCH  25  26
ENDBRANCH  24  25
ENDBRANCH   1  24
TORSDOF 14
ENDMDL
MODEL 4
REMARK VINA RESULT:    -7.090      2.318      4.831
REMARK INTER + INTRA:         -12.788
REMARK INTER:                 -10.928
REMARK INTRA:                  -1.860
REMARK UNBOUND:                 0.104
REMARK  Name = ZINC000034751324
REMARK  18 active torsions:
REMARK  status: ('A' for Active; 'I' for Inactive)
REMARK    1  A    between atoms: C_1  and  O_2
REMARK    2  A    between atoms: O_2  and  C_3
REMARK    3  A    between atoms: C_3  and  C_5
REMARK    4  A    between atoms: C_5  and  C_6
REMARK    5  A    between atoms: C_6  and  C_7
REMARK    6  A    between atoms: C_7  and  C_8
REMARK    7  A    between atoms: C_8  and  C_9
REMARK    8  A    between atoms: C_9  and  C_10
REMARK    9  A    between atoms: C_10  and  C_11
REMARK   10  A    between atoms: C_11  and  C_12
REMARK   11  A    between atoms: C_12  and  C_13
REMARK   12  A    between atoms: C_17  and  O_18
REMARK   13  A    between atoms: O_18  and  C_19
REMARK   14  A    between atoms: C_21  and  O_22
REMARK   15  A    between atoms: O_22  and  C_23
REMARK   16  A    between atoms: C_27  and  C_28
REMARK   17  A    between atoms: C_31  and  O_32
REMARK   18  A    between atoms: O_32  and  C_33
REMARK                            x       y       z     vdW  Elec       q    Type
REMARK                         _______ _______ _______ _____ _____    ______ ____
ROOT
ATOM      1  C   UNL     1       0.223   4.847 -23.654  0.00  0.00    +0.117 A 
ATOM      2  O   UNL     1       1.370   5.136 -23.115  0.00  0.00    -0.459 OA
ATOM      3  C   UNL     1       2.405   4.384 -23.347  0.00  0.00    +0.146 A 
ATOM      4  C   UNL     1       3.552   4.672 -22.809  0.00  0.00    +0.092 A 
ATOM      5  C   UNL     1       4.587   3.920 -23.040  0.00  0.00    +0.127 A 
ATOM      6  C   UNL     1       4.474   2.879 -23.811  0.00  0.00    +0.092 A 
ATOM      7  C   UNL     1       3.327   2.591 -24.349  0.00  0.00    +0.138 A 
ATOM      8  C   UNL     1       2.292   3.342 -24.118  0.00  0.00    +0.106 A 
ATOM      9  C   UNL     1       1.145   3.054 -24.656  0.00  0.00    +0.204 A 
ATOM     10  O   UNL     1       1.032   2.013 -25.427  0.00  0.00    -0.286 OA
ATOM     11  C   UNL     1       0.110   3.806 -24.425  0.00  0.00    +0.068 A 
ENDROOT
BRANCH  11  12
ATOM     12  C   UNL     1      -1.037   3.518 -24.964  0.00  0.00    -0.011 A 
ATOM     13  C   UNL     1      -1.342   3.991 -26.136  0.00  0.00    +0.012 A 
ATOM     14  C   UNL     1      -2.489   3.702 -26.675  0.00  0.00    +0.046 A 
ATOM     15  C   UNL     1      -3.331   2.940 -26.042  0.00  0.00    +0.120 A 
ATOM     16  C   UNL     1      -3.026   2.467 -24.871  0.00  0.00    +0.046 A 
ATOM     17  C   UNL     1      -1.879   2.756 -24.331  0.00  0.00    +0.012 A 
BRANCH  15  18
ATOM     18  O   UNL     1      -4.478   2.652 -26.581  0.00  0.00    -0.495 OA
ATOM     19  C   UNL     1      -5.582   2.978 -25.976  0.00  0.00    +0.277 C 
ENDBRANCH  15  18
ENDBRANCH  11  12
BRANCH   5  20
ATOM     20  O   UNL     1       5.734   4.208 -22.501  0.00  0.00    -0.495 OA
ATOM     21  C   UNL     1       6.212   3.462 -21.549  0.00  0.00    +0.277 C 
ENDBRANCH   5  20
BRANCH   7  22
ATOM     22  O   UNL     1       3.214   1.549 -25.120  0.00  0.00    -0.494 OA
ATOM     23  C   UNL     1       3.450   0.362 -24.646  0.00  0.00    +0.277 C 
ENDBRANCH   7  22
BRANCH   1  24
ATOM     24  C   UNL     1      -0.812   5.600 -23.423  0.00  0.00    +0.075 C 
BRANCH  24  25
ATOM     25  C   UNL     1      -1.310   5.669 -22.224  0.00  0.00    +0.008 C 
BRANCH  25  26
ATOM     26  C   UNL     1      -1.297   4.622 -21.454  0.00  0.00    +0.000 C 
BRANCH  26  27
ATOM     27  C   UNL     1      -2.394   3.957 -21.244  0.00  0.00    +0.000 C 
BRANCH  27  28
ATOM     28  C   UNL     1      -2.339   2.729 -20.820  0.00  0.00    +0.000 C 
BRANCH  28  29
ATOM     29  C   UNL     1      -1.668   1.839 -21.490  0.00  0.00    +0.001 C 
BRANCH  29  30
ATOM     30  C   UNL     1      -0.595   1.314 -20.978  0.00  0.00    +0.011 C 
BRANCH  30  31
ATOM     31  C   UNL     1       0.570   1.589 -21.489  0.00  0.00    +0.120 C 
BRANCH  31  32
ATOM     32  C   UNL     1       1.653   1.246 -20.859  0.00  0.00    +0.307 C 
ATOM     33  O   UNL     1       1.759   1.464 -19.582  0.00  0.00    -0.251 OA
BRANCH  32  35
ATOM     34  C   UNL     1       3.752   0.431 -20.897  0.00  0.00    +0.280 C 
ATOM     35  O   UNL     1       2.631   0.685 -21.505  0.00  0.00    -0.468 OA
ENDBRANCH  32  35
ENDBRANCH  31  32
ENDBRANCH  30  31
ENDBRANCH  29  30
ENDBRANCH  28  29
ENDBRANCH  27  28
ENDBRANCH  26  27
ENDBRANCH  25  26
ENDBRANCH  24  25
ENDBRANCH   1  24
TORSDOF 14
ENDMDL
MODEL 5
REMARK VINA RESULT:    -7.054      1.587      3.520
REMARK INTER + INTRA:         -12.723
REMARK INTER:                 -12.131
REMARK INTRA:                  -0.592
REMARK UNBOUND:                 0.104
REMARK  Name = ZINC000034751324
REMARK  18 active torsions:
REMARK  status: ('A' for Active; 'I' for Inactive)
REMARK    1  A    between atoms: C_1  and  O_2
REMARK    2  A    between atoms: O_2  and  C_3
REMARK    3  A    between atoms: C_3  and  C_5
REMARK    4  A    between atoms: C_5  and  C_6
REMARK    5  A    between atoms: C_6  and  C_7
REMARK    6  A    between atoms: C_7  and  C_8
REMARK    7  A    between atoms: C_8  and  C_9
REMARK    8  A    between atoms: C_9  and  C_10
REMARK    9  A    between atoms: C_10  and  C_11
REMARK   10  A    between atoms: C_11  and  C_12
REMARK   11  A    between atoms: C_12  and  C_13
REMARK   12  A    between atoms: C_17  and  O_18
REMARK   13  A    between atoms: O_18  and  C_19
REMARK   14  A    between atoms: C_21  and  O_22
REMARK   15  A    between atoms: O_22  and  C_23
REMARK   16  A    between atoms: C_27  and  C_28
REMARK   17  A    between atoms: C_31  and  O_32
REMARK   18  A    between atoms: O_32  and  C_33
REMARK                            x       y       z     vdW  Elec       q    Type
REMARK                         _______ _______ _______ _____ _____    ______ ____
ROOT
ATOM      1  C   UNL     1       2.585   5.203 -23.286  0.00  0.00    +0.117 A 
ATOM      2  O   UNL     1       2.801   6.373 -22.763  0.00  0.00    -0.459 OA
ATOM      3  C   UNL     1       3.984   6.679 -22.322  0.00  0.00    +0.146 A 
ATOM      4  C   UNL     1       4.201   7.849 -21.799  0.00  0.00    +0.092 A 
ATOM      5  C   UNL     1       5.384   8.156 -21.358  0.00  0.00    +0.127 A 
ATOM      6  C   UNL     1       6.353   7.292 -21.440  0.00  0.00    +0.092 A 
ATOM      7  C   UNL     1       6.136   6.123 -21.963  0.00  0.00    +0.138 A 
ATOM      8  C   UNL     1       4.953   5.815 -22.405  0.00  0.00    +0.106 A 
ATOM      9  C   UNL     1       4.737   4.645 -22.928  0.00  0.00    +0.204 A 
ATOM     10  O   UNL     1       5.705   3.782 -23.010  0.00  0.00    -0.286 OA
ATOM     11  C   UNL     1       3.553   4.339 -23.369  0.00  0.00    +0.068 A 
ENDROOT
BRANCH  11  12
ATOM     12  C   UNL     1       3.338   3.169 -23.892  0.00  0.00    -0.011 A 
ATOM     13  C   UNL     1       2.691   3.068 -25.016  0.00  0.00    +0.012 A 
ATOM     14  C   UNL     1       2.475   1.898 -25.539  0.00  0.00    +0.046 A 
ATOM     15  C   UNL     1       2.906   0.828 -24.939  0.00  0.00    +0.120 A 
ATOM     16  C   UNL     1       3.553   0.928 -23.816  0.00  0.00    +0.046 A 
ATOM     17  C   UNL     1       3.769   2.099 -23.292  0.00  0.00    +0.012 A 
BRANCH  15  18
ATOM     18  O   UNL     1       2.691  -0.342 -25.462  0.00  0.00    -0.495 OA
ATOM     19  C   UNL     1       2.757  -0.500 -26.751  0.00  0.00    +0.277 C 
ENDBRANCH  15  18
ENDBRANCH  11  12
BRANCH   5  20
ATOM     20  O   UNL     1       5.600   9.326 -20.835  0.00  0.00    -0.495 OA
ATOM     21  C   UNL     1       5.209  10.400 -21.456  0.00  0.00    +0.277 C 
ENDBRANCH   5  20
BRANCH   7  22
ATOM     22  O   UNL     1       7.105   5.258 -22.046  0.00  0.00    -0.494 OA
ATOM     23  C   UNL     1       8.124   5.347 -21.243  0.00  0.00    +0.277 C 
ENDBRANCH   7  22
BRANCH   1  24
ATOM     24  C   UNL     1       1.401   4.895 -23.728  0.00  0.00    +0.075 C 
BRANCH  24  25
ATOM     25  C   UNL     1       0.364   5.029 -22.955  0.00  0.00    +0.008 C 
BRANCH  25  26
ATOM     26  C   UNL     1      -0.740   4.405 -23.236  0.00  0.00    +0.000 C 
BRANCH  26  27
ATOM     27  C   UNL     1      -0.804   3.112 -23.120  0.00  0.00    +0.000 C 
BRANCH  27  28
ATOM     28  C   UNL     1      -0.783   2.562 -21.942  0.00  0.00    +0.000 C 
BRANCH  28  29
ATOM     29  C   UNL     1      -1.881   2.102 -21.420  0.00  0.00    +0.001 C 
BRANCH  29  30
ATOM     30  C   UNL     1      -2.848   2.916 -21.119  0.00  0.00    +0.011 C 
BRANCH  30  31
ATOM     31  C   UNL     1      -4.081   2.577 -21.357  0.00  0.00    +0.120 C 
BRANCH  31  32
ATOM     32  C   UNL     1      -4.816   3.306 -22.142  0.00  0.00    +0.307 C 
ATOM     33  O   UNL     1      -6.102   3.365 -21.959  0.00  0.00    -0.251 OA
BRANCH  32  35
ATOM     34  C   UNL     1      -4.509   3.654 -24.346  0.00  0.00    +0.280 C 
ATOM     35  O   UNL     1      -4.266   3.977 -23.110  0.00  0.00    -0.468 OA
ENDBRANCH  32  35
ENDBRANCH  31  32
ENDBRANCH  30  31
ENDBRANCH  29  30
ENDBRANCH  28  29
ENDBRANCH  27  28
ENDBRANCH  26  27
ENDBRANCH  25  26
ENDBRANCH  24  25
ENDBRANCH   1  24
TORSDOF 14
ENDMDL
MODEL 6
REMARK VINA RESULT:    -6.129      1.824      3.838
REMARK INTER + INTRA:         -11.042
REMARK INTER:                 -10.335
REMARK INTRA:                  -0.706
REMARK UNBOUND:                 0.104
REMARK  Name = ZINC000034751324
REMARK  18 active torsions:
REMARK  status: ('A' for Active; 'I' for Inactive)
REMARK    1  A    between atoms: C_1  and  O_2
REMARK    2  A    between atoms: O_2  and  C_3
REMARK    3  A    between atoms: C_3  and  C_5
REMARK    4  A    between atoms: C_5  and  C_6
REMARK    5  A    between atoms: C_6  and  C_7
REMARK    6  A    between atoms: C_7  and  C_8
REMARK    7  A    between atoms: C_8  and  C_9
REMARK    8  A    between atoms: C_9  and  C_10
REMARK    9  A    between atoms: C_10  and  C_11
REMARK   10  A    between atoms: C_11  and  C_12
REMARK   11  A    between atoms: C_12  and  C_13
REMARK   12  A    between atoms: C_17  and  O_18
REMARK   13  A    between atoms: O_18  and  C_19
REMARK   14  A    between atoms: C_21  and  O_22
REMARK   15  A    between atoms: O_22  and  C_23
REMARK   16  A    between atoms: C_27  and  C_28
REMARK   17  A    between atoms: C_31  and  O_32
REMARK   18  A    between atoms: O_32  and  C_33
REMARK                            x       y       z     vdW  Elec       q    Type
REMARK                         _______ _______ _______ _____ _____    ______ ____
ROOT
ATOM      1  C   UNL     1       0.894   5.024 -23.596  0.00  0.00    +0.117 A 
ATOM      2  O   UNL     1       2.056   5.441 -23.191  0.00  0.00    -0.459 OA
ATOM      3  C   UNL     1       3.086   4.650 -23.249  0.00  0.00    +0.146 A 
ATOM      4  C   UNL     1       4.249   5.065 -22.844  0.00  0.00    +0.092 A 
ATOM      5  C   UNL     1       5.279   4.275 -22.902  0.00  0.00    +0.127 A 
ATOM      6  C   UNL     1       5.146   3.067 -23.366  0.00  0.00    +0.092 A 
ATOM      7  C   UNL     1       3.984   2.652 -23.771  0.00  0.00    +0.138 A 
ATOM      8  C   UNL     1       2.953   3.442 -23.713  0.00  0.00    +0.106 A 
ATOM      9  C   UNL     1       1.791   3.026 -24.118  0.00  0.00    +0.204 A 
ATOM     10  O   UNL     1       1.658   1.819 -24.582  0.00  0.00    -0.286 OA
ATOM     11  C   UNL     1       0.761   3.817 -24.060  0.00  0.00    +0.068 A 
ENDROOT
BRANCH  11  12
ATOM     12  C   UNL     1      -0.402   3.400 -24.465  0.00  0.00    -0.011 A 
ATOM     13  C   UNL     1      -0.928   3.893 -25.548  0.00  0.00    +0.012 A 
ATOM     14  C   UNL     1      -2.091   3.477 -25.953  0.00  0.00    +0.046 A 
ATOM     15  C   UNL     1      -2.728   2.568 -25.277  0.00  0.00    +0.120 A 
ATOM     16  C   UNL     1      -2.202   2.075 -24.195  0.00  0.00    +0.046 A 
ATOM     17  C   UNL     1      -1.039   2.491 -23.789  0.00  0.00    +0.012 A 
BRANCH  15  18
ATOM     18  O   UNL     1      -3.890   2.151 -25.682  0.00  0.00    -0.495 OA
ATOM     19  C   UNL     1      -4.630   2.915 -26.431  0.00  0.00    +0.277 C 
ENDBRANCH  15  18
ENDBRANCH  11  12
BRANCH   5  20
ATOM     20  O   UNL     1       6.442   4.691 -22.496  0.00  0.00    -0.495 OA
ATOM     21  C   UNL     1       6.536   5.787 -21.802  0.00  0.00    +0.277 C 
ENDBRANCH   5  20
BRANCH   7  22
ATOM     22  O   UNL     1       3.851   1.444 -24.235  0.00  0.00    -0.494 OA
ATOM     23  C   UNL     1       4.118   0.423 -23.474  0.00  0.00    +0.277 C 
ENDBRANCH   7  22
BRANCH   1  24
ATOM     24  C   UNL     1      -0.137   5.815 -23.538  0.00  0.00    +0.075 C 
BRANCH  24  25
ATOM     25  C   UNL     1      -0.747   6.006 -22.406  0.00  0.00    +0.008 C 
BRANCH  25  26
ATOM     26  C   UNL     1      -1.134   4.988 -21.697  0.00  0.00    +0.000 C 
BRANCH  26  27
ATOM     27  C   UNL     1      -2.401   4.726 -21.574  0.00  0.00    +0.000 C 
BRANCH  27  28
ATOM     28  C   UNL     1      -2.905   4.489 -20.399  0.00  0.00    +0.000 C 
BRANCH  28  29
ATOM     29  C   UNL     1      -3.047   3.265 -19.987  0.00  0.00    +0.001 C 
BRANCH  29  30
ATOM     30  C   UNL     1      -3.524   2.361 -20.790  0.00  0.00    +0.011 C 
BRANCH  30  31
ATOM     31  C   UNL     1      -4.797   2.097 -20.789  0.00  0.00    +0.120 C 
BRANCH  31  32
ATOM     32  C   UNL     1      -5.572   2.632 -21.685  0.00  0.00    +0.307 C 
ATOM     33  O   UNL     1      -6.860   2.638 -21.509  0.00  0.00    -0.251 OA
BRANCH  32  35
ATOM     34  C   UNL     1      -5.769   3.971 -23.485  0.00  0.00    +0.280 C 
ATOM     35  O   UNL     1      -5.060   3.160 -22.756  0.00  0.00    -0.468 OA
ENDBRANCH  32  35
ENDBRANCH  31  32
ENDBRANCH  30  31
ENDBRANCH  29  30
ENDBRANCH  28  29
ENDBRANCH  27  28
ENDBRANCH  26  27
ENDBRANCH  25  26
ENDBRANCH  24  25
ENDBRANCH   1  24
TORSDOF 14
ENDMDL
