MODEL 1
REMARK VINA RESULT:   -10.112      0.000      0.000
REMARK INTER + INTRA:         -10.112
REMARK INTER:                 -10.112
REMARK INTRA:                   0.000
REMARK UNBOUND:                 0.000
REMARK  Name = ZINC000004832997
REMARK  2 active torsions:
REMARK  status: ('A' for Active; 'I' for Inactive)
REMARK    1  A    between atoms: C_8  and  C_9
REMARK    2  A    between atoms: C_13  and  C_14
REMARK                            x       y       z     vdW  Elec       q    Type
REMARK                         _______ _______ _______ _____ _____    ______ ____
ROOT
ATOM      1  C   UNL     1       0.463   1.522 -21.113  0.00  0.00    +0.020 C 
ATOM      2  C   UNL     1       0.150   2.062 -22.253  0.00  0.00    +0.040 C 
ATOM      3  C   UNL     1       0.964   2.290 -23.240  0.00  0.00    +0.336 C 
ATOM      4  O   UNL     1       0.283   2.838 -24.203  0.00  0.00    -0.457 OA
ATOM      5  C   UNL     1      -0.951   2.948 -23.810  0.00  0.00    +0.189 C 
ATOM      6  C   UNL     1      -2.010   3.424 -24.395  0.00  0.00    +0.056 C 
ATOM      7  C   UNL     1      -3.153   3.420 -23.775  0.00  0.00    -0.007 C 
ATOM      8  C   UNL     1      -4.212   3.896 -24.359  0.00  0.00    +0.011 C 
ATOM      9  C   UNL     1      -5.353   3.892 -23.738  0.00  0.00    +0.001 C 
ATOM     10  C   UNL     1      -5.436   3.412 -22.533  0.00  0.00    +0.007 C 
ATOM     11  C   UNL     1      -4.377   2.936 -21.947  0.00  0.00    +0.012 C 
ATOM     12  C   UNL     1      -4.460   2.457 -20.742  0.00  0.00    +0.012 C 
ATOM     13  C   UNL     1      -3.070   3.900 -24.980  0.00  0.00    +0.016 C 
ATOM     14  C   UNL     1      -3.235   2.940 -22.568  0.00  0.00    -0.064 C 
ATOM     15  C   UNL     1      -2.176   2.465 -21.984  0.00  0.00    -0.015 C 
ATOM     16  O   UNL     1       2.235   2.018 -23.261  0.00  0.00    -0.245 OA
ATOM     17  C   UNL     1      -1.034   2.469 -22.605  0.00  0.00    +0.089 C 
ENDROOT
TORSDOF 0
ENDMDL
MODEL 2
REMARK VINA RESULT:   -10.022      0.954      2.530
REMARK INTER + INTRA:         -10.022
REMARK INTER:                 -10.022
REMARK INTRA:                   0.000
REMARK UNBOUND:                 0.000
REMARK  Name = ZINC000004832997
REMARK  2 active torsions:
REMARK  status: ('A' for Active; 'I' for Inactive)
REMARK    1  A    between atoms: C_8  and  C_9
REMARK    2  A    between atoms: C_13  and  C_14
REMARK                            x       y       z     vdW  Elec       q    Type
REMARK                         _______ _______ _______ _____ _____    ______ ____
ROOT
ATOM      1  C   UNL     1       0.546   3.369 -25.128  0.00  0.00    +0.020 C 
ATOM      2  C   UNL     1       0.123   3.025 -23.948  0.00  0.00    +0.040 C 
ATOM      3  C   UNL     1       0.856   2.569 -22.976  0.00  0.00    +0.336 C 
ATOM      4  O   UNL     1       0.078   2.340 -21.960  0.00  0.00    -0.457 OA
ATOM      5  C   UNL     1      -1.136   2.654 -22.305  0.00  0.00    +0.189 C 
ATOM      6  C   UNL     1      -2.262   2.610 -21.658  0.00  0.00    +0.056 C 
ATOM      7  C   UNL     1      -3.362   2.989 -22.239  0.00  0.00    -0.007 C 
ATOM      8  C   UNL     1      -4.488   2.944 -21.593  0.00  0.00    +0.011 C 
ATOM      9  C   UNL     1      -5.587   3.323 -22.175  0.00  0.00    +0.001 C 
ATOM     10  C   UNL     1      -5.559   3.747 -23.404  0.00  0.00    +0.007 C 
ATOM     11  C   UNL     1      -4.432   3.792 -24.051  0.00  0.00    +0.012 C 
ATOM     12  C   UNL     1      -4.404   4.216 -25.280  0.00  0.00    +0.012 C 
ATOM     13  C   UNL     1      -3.390   2.565 -21.011  0.00  0.00    +0.016 C 
ATOM     14  C   UNL     1      -3.333   3.413 -23.469  0.00  0.00    -0.064 C 
ATOM     15  C   UNL     1      -2.206   3.457 -24.115  0.00  0.00    -0.015 C 
ATOM     16  O   UNL     1       2.141   2.376 -23.013  0.00  0.00    -0.245 OA
ATOM     17  C   UNL     1      -1.108   3.078 -23.533  0.00  0.00    +0.089 C 
ENDROOT
TORSDOF 0
ENDMDL
MODEL 3
REMARK VINA RESULT:    -9.517      2.223      5.285
REMARK INTER + INTRA:          -9.517
REMARK INTER:                  -9.517
REMARK INTRA:                   0.000
REMARK UNBOUND:                 0.000
REMARK  Name = ZINC000004832997
REMARK  2 active torsions:
REMARK  status: ('A' for Active; 'I' for Inactive)
REMARK    1  A    between atoms: C_8  and  C_9
REMARK    2  A    between atoms: C_13  and  C_14
REMARK                            x       y       z     vdW  Elec       q    Type
REMARK                         _______ _______ _______ _____ _____    ______ ____
ROOT
ATOM      1  C   UNL     1      -4.678   4.253 -24.397  0.00  0.00    +0.020 C 
ATOM      2  C   UNL     1      -4.182   3.606 -23.384  0.00  0.00    +0.040 C 
ATOM      3  C   UNL     1      -4.840   3.202 -22.339  0.00  0.00    +0.336 C 
ATOM      4  O   UNL     1      -4.005   2.596 -21.548  0.00  0.00    -0.457 OA
ATOM      5  C   UNL     1      -2.831   2.626 -22.105  0.00  0.00    +0.189 C 
ATOM      6  C   UNL     1      -1.677   2.166 -21.725  0.00  0.00    +0.056 C 
ATOM      7  C   UNL     1      -0.630   2.330 -22.478  0.00  0.00    -0.007 C 
ATOM      8  C   UNL     1       0.524   1.869 -22.098  0.00  0.00    +0.011 C 
ATOM      9  C   UNL     1       1.570   2.034 -22.853  0.00  0.00    +0.001 C 
ATOM     10  C   UNL     1       1.461   2.658 -23.988  0.00  0.00    +0.007 C 
ATOM     11  C   UNL     1       0.306   3.119 -24.369  0.00  0.00    +0.012 C 
ATOM     12  C   UNL     1       0.198   3.744 -25.504  0.00  0.00    +0.012 C 
ATOM     13  C   UNL     1      -0.521   1.705 -21.344  0.00  0.00    +0.016 C 
ATOM     14  C   UNL     1      -0.740   2.955 -23.614  0.00  0.00    -0.064 C 
ATOM     15  C   UNL     1      -1.894   3.415 -23.994  0.00  0.00    -0.015 C 
ATOM     16  O   UNL     1      -6.111   3.373 -22.123  0.00  0.00    -0.245 OA
ATOM     17  C   UNL     1      -2.940   3.251 -23.240  0.00  0.00    +0.089 C 
ENDROOT
TORSDOF 0
ENDMDL
MODEL 4
REMARK VINA RESULT:    -9.466      2.145      4.625
REMARK INTER + INTRA:          -9.466
REMARK INTER:                  -9.466
REMARK INTRA:                   0.000
REMARK UNBOUND:                 0.000
REMARK  Name = ZINC000004832997
REMARK  2 active torsions:
REMARK  status: ('A' for Active; 'I' for Inactive)
REMARK    1  A    between atoms: C_8  and  C_9
REMARK    2  A    between atoms: C_13  and  C_14
REMARK                            x       y       z     vdW  Elec       q    Type
REMARK                         _______ _______ _______ _____ _____    ______ ____
ROOT
ATOM      1  C   UNL     1      -4.161   2.255 -20.571  0.00  0.00    +0.020 C 
ATOM      2  C   UNL     1      -3.999   2.771 -21.753  0.00  0.00    +0.040 C 
ATOM      3  C   UNL     1      -4.922   3.329 -22.477  0.00  0.00    +0.336 C 
ATOM      4  O   UNL     1      -4.377   3.722 -23.590  0.00  0.00    -0.457 OA
ATOM      5  C   UNL     1      -3.116   3.406 -23.553  0.00  0.00    +0.189 C 
ATOM      6  C   UNL     1      -2.152   3.578 -24.407  0.00  0.00    +0.056 C 
ATOM      7  C   UNL     1      -0.952   3.163 -24.126  0.00  0.00    -0.007 C 
ATOM      8  C   UNL     1       0.013   3.335 -24.980  0.00  0.00    +0.011 C 
ATOM      9  C   UNL     1       1.211   2.919 -24.698  0.00  0.00    +0.001 C 
ATOM     10  C   UNL     1       1.445   2.330 -23.563  0.00  0.00    +0.007 C 
ATOM     11  C   UNL     1       0.481   2.158 -22.708  0.00  0.00    +0.012 C 
ATOM     12  C   UNL     1       0.715   1.570 -21.573  0.00  0.00    +0.012 C 
ATOM     13  C   UNL     1      -1.186   3.751 -25.261  0.00  0.00    +0.016 C 
ATOM     14  C   UNL     1      -0.719   2.574 -22.989  0.00  0.00    -0.064 C 
ATOM     15  C   UNL     1      -1.683   2.402 -22.136  0.00  0.00    -0.015 C 
ATOM     16  O   UNL     1      -6.171   3.470 -22.146  0.00  0.00    -0.245 OA
ATOM     17  C   UNL     1      -2.882   2.818 -22.417  0.00  0.00    +0.089 C 
ENDROOT
TORSDOF 0
ENDMDL
MODEL 5
REMARK VINA RESULT:    -8.520      2.444      4.487
REMARK INTER + INTRA:          -8.520
REMARK INTER:                  -8.520
REMARK INTRA:                   0.000
REMARK UNBOUND:                 0.000
REMARK  Name = ZINC000004832997
REMARK  2 active torsions:
REMARK  status: ('A' for Active; 'I' for Inactive)
REMARK    1  A    between atoms: C_8  and  C_9
REMARK    2  A    between atoms: C_13  and  C_14
REMARK                            x       y       z     vdW  Elec       q    Type
REMARK                         _______ _______ _______ _____ _____    ______ ____
ROOT
ATOM      1  C   UNL     1       4.904   2.104 -22.723  0.00  0.00    +0.020 C 
ATOM      2  C   UNL     1       3.868   1.683 -22.062  0.00  0.00    +0.040 C 
ATOM      3  C   UNL     1       3.886   0.869 -21.048  0.00  0.00    +0.336 C 
ATOM      4  O   UNL     1       2.660   0.686 -20.658  0.00  0.00    -0.457 OA
ATOM      5  C   UNL     1       1.884   1.386 -21.431  0.00  0.00    +0.189 C 
ATOM      6  C   UNL     1       0.594   1.541 -21.456  0.00  0.00    +0.056 C 
ATOM      7  C   UNL     1       0.048   2.313 -22.349  0.00  0.00    -0.007 C 
ATOM      8  C   UNL     1      -1.242   2.469 -22.374  0.00  0.00    +0.011 C 
ATOM      9  C   UNL     1      -1.785   3.241 -23.267  0.00  0.00    +0.001 C 
ATOM     10  C   UNL     1      -1.039   3.858 -24.135  0.00  0.00    +0.007 C 
ATOM     11  C   UNL     1       0.251   3.703 -24.110  0.00  0.00    +0.012 C 
ATOM     12  C   UNL     1       0.998   4.319 -24.978  0.00  0.00    +0.012 C 
ATOM     13  C   UNL     1      -0.698   1.697 -21.481  0.00  0.00    +0.016 C 
ATOM     14  C   UNL     1       0.796   2.930 -23.217  0.00  0.00    -0.064 C 
ATOM     15  C   UNL     1       2.086   2.774 -23.192  0.00  0.00    -0.015 C 
ATOM     16  O   UNL     1       4.945   0.334 -20.518  0.00  0.00    -0.245 OA
ATOM     17  C   UNL     1       2.630   2.002 -22.299  0.00  0.00    +0.089 C 
ENDROOT
TORSDOF 0
ENDMDL
MODEL 6
REMARK VINA RESULT:    -8.350      1.344      2.237
REMARK INTER + INTRA:          -8.350
REMARK INTER:                  -8.350
REMARK INTRA:                   0.000
REMARK UNBOUND:                 0.000
REMARK  Name = ZINC000004832997
REMARK  2 active torsions:
REMARK  status: ('A' for Active; 'I' for Inactive)
REMARK    1  A    between atoms: C_8  and  C_9
REMARK    2  A    between atoms: C_13  and  C_14
REMARK                            x       y       z     vdW  Elec       q    Type
REMARK                         _______ _______ _______ _____ _____    ______ ____
ROOT
ATOM      1  C   UNL     1       2.505   1.525 -21.081  0.00  0.00    +0.020 C 
ATOM      2  C   UNL     1       2.278   1.963 -22.283  0.00  0.00    +0.040 C 
ATOM      3  C   UNL     1       3.157   2.075 -23.234  0.00  0.00    +0.336 C 
ATOM      4  O   UNL     1       2.555   2.547 -24.284  0.00  0.00    -0.457 OA
ATOM      5  C   UNL     1       1.303   2.726 -23.983  0.00  0.00    +0.189 C 
ATOM      6  C   UNL     1       0.297   3.171 -24.675  0.00  0.00    +0.056 C 
ATOM      7  C   UNL     1      -0.881   3.256 -24.131  0.00  0.00    -0.007 C 
ATOM      8  C   UNL     1      -1.887   3.701 -24.823  0.00  0.00    +0.011 C 
ATOM      9  C   UNL     1      -3.064   3.784 -24.278  0.00  0.00    +0.001 C 
ATOM     10  C   UNL     1      -3.235   3.423 -23.041  0.00  0.00    +0.007 C 
ATOM     11  C   UNL     1      -2.229   2.978 -22.348  0.00  0.00    +0.012 C 
ATOM     12  C   UNL     1      -2.400   2.617 -21.111  0.00  0.00    +0.012 C 
ATOM     13  C   UNL     1      -0.710   3.617 -25.368  0.00  0.00    +0.016 C 
ATOM     14  C   UNL     1      -1.051   2.894 -22.893  0.00  0.00    -0.064 C 
ATOM     15  C   UNL     1      -0.045   2.449 -22.201  0.00  0.00    -0.015 C 
ATOM     16  O   UNL     1       4.418   1.770 -23.149  0.00  0.00    -0.245 OA
ATOM     17  C   UNL     1       1.132   2.365 -22.746  0.00  0.00    +0.089 C 
ENDROOT
TORSDOF 0
ENDMDL
MODEL 7
REMARK VINA RESULT:    -7.956      3.106      6.585
REMARK INTER + INTRA:          -7.956
REMARK INTER:                  -7.956
REMARK INTRA:                   0.000
REMARK UNBOUND:                 0.000
REMARK  Name = ZINC000004832997
REMARK  2 active torsions:
REMARK  status: ('A' for Active; 'I' for Inactive)
REMARK    1  A    between atoms: C_8  and  C_9
REMARK    2  A    between atoms: C_13  and  C_14
REMARK                            x       y       z     vdW  Elec       q    Type
REMARK                         _______ _______ _______ _____ _____    ______ ____
ROOT
ATOM      1  C   UNL     1      -0.958   5.165 -23.109  0.00  0.00    +0.020 C 
ATOM      2  C   UNL     1      -0.288   4.102 -23.443  0.00  0.00    +0.040 C 
ATOM      3  C   UNL     1      -0.794   2.973 -23.842  0.00  0.00    +0.336 C 
ATOM      4  O   UNL     1       0.187   2.155 -24.081  0.00  0.00    -0.457 OA
ATOM      5  C   UNL     1       1.300   2.779 -23.830  0.00  0.00    +0.189 C 
ATOM      6  C   UNL     1       2.542   2.406 -23.910  0.00  0.00    +0.056 C 
ATOM      7  C   UNL     1       3.492   3.236 -23.595  0.00  0.00    -0.007 C 
ATOM      8  C   UNL     1       4.735   2.864 -23.675  0.00  0.00    +0.011 C 
ATOM      9  C   UNL     1       5.684   3.694 -23.360  0.00  0.00    +0.001 C 
ATOM     10  C   UNL     1       5.390   4.898 -22.966  0.00  0.00    +0.007 C 
ATOM     11  C   UNL     1       4.147   5.271 -22.885  0.00  0.00    +0.012 C 
ATOM     12  C   UNL     1       3.854   6.474 -22.490  0.00  0.00    +0.012 C 
ATOM     13  C   UNL     1       3.786   2.033 -23.990  0.00  0.00    +0.016 C 
ATOM     14  C   UNL     1       3.197   4.440 -23.200  0.00  0.00    -0.064 C 
ATOM     15  C   UNL     1       1.955   4.813 -23.120  0.00  0.00    -0.015 C 
ATOM     16  O   UNL     1      -2.060   2.709 -23.977  0.00  0.00    -0.245 OA
ATOM     17  C   UNL     1       1.006   3.982 -23.435  0.00  0.00    +0.089 C 
ENDROOT
TORSDOF 0
ENDMDL
MODEL 8
REMARK VINA RESULT:    -7.864      1.933      5.177
REMARK INTER + INTRA:          -7.864
REMARK INTER:                  -7.864
REMARK INTRA:                   0.000
REMARK UNBOUND:                 0.000
REMARK  Name = ZINC000004832997
REMARK  2 active torsions:
REMARK  status: ('A' for Active; 'I' for Inactive)
REMARK    1  A    between atoms: C_8  and  C_9
REMARK    2  A    between atoms: C_13  and  C_14
REMARK                            x       y       z     vdW  Elec       q    Type
REMARK                         _______ _______ _______ _____ _____    ______ ____
ROOT
ATOM      1  C   UNL     1      -2.904   3.643 -22.211  0.00  0.00    +0.020 C 
ATOM      2  C   UNL     1      -2.217   3.667 -23.314  0.00  0.00    +0.040 C 
ATOM      3  C   UNL     1      -2.616   4.153 -24.452  0.00  0.00    +0.336 C 
ATOM      4  O   UNL     1      -1.656   3.996 -25.314  0.00  0.00    -0.457 OA
ATOM      5  C   UNL     1      -0.664   3.413 -24.709  0.00  0.00    +0.189 C 
ATOM      6  C   UNL     1       0.510   3.042 -25.124  0.00  0.00    +0.056 C 
ATOM      7  C   UNL     1       1.339   2.466 -24.304  0.00  0.00    -0.007 C 
ATOM      8  C   UNL     1       2.513   2.095 -24.719  0.00  0.00    +0.011 C 
ATOM      9  C   UNL     1       3.340   1.520 -23.898  0.00  0.00    +0.001 C 
ATOM     10  C   UNL     1       2.994   1.317 -22.661  0.00  0.00    +0.007 C 
ATOM     11  C   UNL     1       1.819   1.688 -22.245  0.00  0.00    +0.012 C 
ATOM     12  C   UNL     1       1.472   1.485 -21.009  0.00  0.00    +0.012 C 
ATOM     13  C   UNL     1       1.686   2.670 -25.540  0.00  0.00    +0.016 C 
ATOM     14  C   UNL     1       0.991   2.263 -23.067  0.00  0.00    -0.064 C 
ATOM     15  C   UNL     1      -0.183   2.635 -22.651  0.00  0.00    -0.015 C 
ATOM     16  O   UNL     1      -3.772   4.700 -24.686  0.00  0.00    -0.245 OA
ATOM     17  C   UNL     1      -1.011   3.210 -23.473  0.00  0.00    +0.089 C 
ENDROOT
TORSDOF 0
ENDMDL
MODEL 9
REMARK VINA RESULT:    -7.223      3.107      6.616
REMARK INTER + INTRA:          -7.223
REMARK INTER:                  -7.223
REMARK INTRA:                   0.000
REMARK UNBOUND:                 0.000
REMARK  Name = ZINC000004832997
REMARK  2 active torsions:
REMARK  status: ('A' for Active; 'I' for Inactive)
REMARK    1  A    between atoms: C_8  and  C_9
REMARK    2  A    between atoms: C_13  and  C_14
REMARK                            x       y       z     vdW  Elec       q    Type
REMARK                         _______ _______ _______ _____ _____    ______ ____
ROOT
ATOM      1  C   UNL     1       0.802   4.194 -25.852  0.00  0.00    +0.020 C 
ATOM      2  C   UNL     1       0.536   3.471 -24.806  0.00  0.00    +0.040 C 
ATOM      3  C   UNL     1      -0.637   3.032 -24.458  0.00  0.00    +0.336 C 
ATOM      4  O   UNL     1      -0.502   2.349 -23.360  0.00  0.00    -0.457 OA
ATOM      5  C   UNL     1       0.756   2.366 -23.030  0.00  0.00    +0.189 C 
ATOM      6  C   UNL     1       1.399   1.840 -22.031  0.00  0.00    +0.056 C 
ATOM      7  C   UNL     1       2.684   2.006 -21.924  0.00  0.00    -0.007 C 
ATOM      8  C   UNL     1       3.327   1.480 -20.925  0.00  0.00    +0.011 C 
ATOM      9  C   UNL     1       4.612   1.647 -20.819  0.00  0.00    +0.001 C 
ATOM     10  C   UNL     1       5.253   2.340 -21.712  0.00  0.00    +0.007 C 
ATOM     11  C   UNL     1       4.610   2.867 -22.712  0.00  0.00    +0.012 C 
ATOM     12  C   UNL     1       5.252   3.560 -23.605  0.00  0.00    +0.012 C 
ATOM     13  C   UNL     1       2.043   1.313 -21.030  0.00  0.00    +0.016 C 
ATOM     14  C   UNL     1       3.325   2.700 -22.818  0.00  0.00    -0.064 C 
ATOM     15  C   UNL     1       2.682   3.227 -23.817  0.00  0.00    -0.015 C 
ATOM     16  O   UNL     1      -1.751   3.240 -25.096  0.00  0.00    -0.245 OA
ATOM     17  C   UNL     1       1.397   3.060 -23.923  0.00  0.00    +0.089 C 
ENDROOT
TORSDOF 0
ENDMDL
