MODEL 1
REMARK VINA RESULT:    -9.594      0.000      0.000
REMARK INTER + INTRA:         -12.336
REMARK INTER:                 -11.760
REMARK INTRA:                  -0.576
REMARK UNBOUND:                -0.499
REMARK  Name = ZINC000003996161
REMARK  4 active torsions:
REMARK  status: ('A' for Active; 'I' for Inactive)
REMARK    1  A    between atoms: C_2  and  O_3
REMARK    2  A    between atoms: C_2  and  C_15
REMARK    3  A    between atoms: O_3  and  C_4
REMARK    4  A    between atoms: C_4  and  C_5
REMARK                            x       y       z     vdW  Elec       q    Type
REMARK                         _______ _______ _______ _____ _____    ______ ____
ROOT
ATOM      1  C   UNL     1      -1.166   2.346 -23.381  0.00  0.00    +0.241 C 
ENDROOT
BRANCH   1   2
ATOM      2  C   UNL     1      -2.175   2.882 -24.002  0.00  0.00    +0.075 C 
ATOM      3  C   UNL     1      -2.051   3.255 -25.242  0.00  0.00    +0.017 C 
ATOM      4  C   UNL     1      -3.059   3.791 -25.863  0.00  0.00    +0.051 C 
ATOM      5  C   UNL     1      -4.191   3.954 -25.244  0.00  0.00    +0.131 C 
ATOM      6  N   UNL     1      -4.315   3.581 -24.006  0.00  0.00    +0.238 N 
ATOM      7  H   UNL     1      -5.285   3.897 -24.004  0.00  0.00    +0.204 HD
ATOM      8  C   UNL     1      -5.447   3.744 -23.388  0.00  0.00    +0.131 C 
ATOM      9  C   UNL     1      -5.571   3.371 -22.148  0.00  0.00    +0.051 C 
ATOM     10  C   UNL     1      -4.562   2.835 -21.528  0.00  0.00    +0.011 C 
ATOM     11  C   UNL     1      -3.430   2.672 -22.146  0.00  0.00    +0.055 C 
ATOM     12  C   UNL     1      -3.307   3.045 -23.385  0.00  0.00    +0.071 C 
ENDBRANCH   1   2
BRANCH   1  13
ATOM     13  O   UNL     1       0.005   2.323 -23.943  0.00  0.00    -0.461 OA
BRANCH  13  15
ATOM     14  O   UNL     1       1.222   1.088 -22.506  0.00  0.00    -0.245 OA
ATOM     15  C   UNL     1       1.072   2.166 -23.216  0.00  0.00    +0.339 C 
BRANCH  15  16
ATOM     16  C   UNL     1       1.988   3.088 -23.199  0.00  0.00    +0.060 A 
ATOM     17  C   UNL     1       1.648   4.343 -23.194  0.00  0.00    +0.015 A 
ATOM     18  C   UNL     1       2.565   5.265 -23.178  0.00  0.00    +0.002 A 
ATOM     19  C   UNL     1       3.821   4.932 -23.165  0.00  0.00    +0.015 A 
ATOM     20  C   UNL     1       4.161   3.677 -23.170  0.00  0.00    +0.019 A 
ATOM     21 BR   UNL     1       5.418   3.344 -23.158  0.00  0.00    -0.050 Br
ATOM     22  C   UNL     1       3.246   2.755 -23.187  0.00  0.00    +0.030 A 
ENDBRANCH  15  16
ENDBRANCH  13  15
ENDBRANCH   1  13
TORSDOF 4
ENDMDL
MODEL 2
REMARK VINA RESULT:    -9.484      1.171      1.751
REMARK INTER + INTRA:         -12.202
REMARK INTER:                 -11.467
REMARK INTRA:                  -0.735
REMARK UNBOUND:                -0.499
REMARK  Name = ZINC000003996161
REMARK  4 active torsions:
REMARK  status: ('A' for Active; 'I' for Inactive)
REMARK    1  A    between atoms: C_2  and  O_3
REMARK    2  A    between atoms: C_2  and  C_15
REMARK    3  A    between atoms: O_3  and  C_4
REMARK    4  A    between atoms: C_4  and  C_5
REMARK                            x       y       z     vdW  Elec       q    Type
REMARK                         _______ _______ _______ _____ _____    ______ ____
ROOT
ATOM      1  C   UNL     1      -1.199   2.249 -22.159  0.00  0.00    +0.241 C 
ENDROOT
BRANCH   1   2
ATOM      2  C   UNL     1      -1.928   2.799 -23.087  0.00  0.00    +0.075 C 
ATOM      3  C   UNL     1      -1.388   3.137 -24.220  0.00  0.00    +0.017 C 
ATOM      4  C   UNL     1      -2.116   3.686 -25.147  0.00  0.00    +0.051 C 
ATOM      5  C   UNL     1      -3.382   3.898 -24.939  0.00  0.00    +0.131 C 
ATOM      6  N   UNL     1      -3.921   3.560 -23.806  0.00  0.00    +0.238 N 
ATOM      7  H   UNL     1      -4.824   3.904 -24.129  0.00  0.00    +0.204 HD
ATOM      8  C   UNL     1      -5.186   3.771 -23.599  0.00  0.00    +0.131 C 
ATOM      9  C   UNL     1      -5.725   3.433 -22.464  0.00  0.00    +0.051 C 
ATOM     10  C   UNL     1      -4.996   2.884 -21.538  0.00  0.00    +0.011 C 
ATOM     11  C   UNL     1      -3.731   2.673 -21.745  0.00  0.00    +0.055 C 
ATOM     12  C   UNL     1      -3.193   3.011 -22.879  0.00  0.00    +0.071 C 
ENDBRANCH   1   2
BRANCH   1  13
ATOM     13  O   UNL     1      -0.246   1.429 -22.484  0.00  0.00    -0.461 OA
BRANCH  13  15
ATOM     14  O   UNL     1       0.909   1.185 -20.566  0.00  0.00    -0.245 OA
ATOM     15  C   UNL     1       0.882   1.455 -21.837  0.00  0.00    +0.339 C 
BRANCH  15  16
ATOM     16  C   UNL     1       1.982   1.750 -22.462  0.00  0.00    +0.060 A 
ATOM     17  C   UNL     1       2.698   0.808 -23.000  0.00  0.00    +0.015 A 
ATOM     18  C   UNL     1       3.799   1.105 -23.625  0.00  0.00    +0.002 A 
ATOM     19  C   UNL     1       4.184   2.343 -23.713  0.00  0.00    +0.015 A 
ATOM     20  C   UNL     1       3.467   3.286 -23.175  0.00  0.00    +0.019 A 
ATOM     21 BR   UNL     1       3.851   4.525 -23.262  0.00  0.00    -0.050 Br
ATOM     22  C   UNL     1       2.367   2.990 -22.550  0.00  0.00    +0.030 A 
ENDBRANCH  15  16
ENDBRANCH  13  15
ENDBRANCH   1  13
TORSDOF 4
ENDMDL
MODEL 3
REMARK VINA RESULT:    -9.412      1.444      2.099
REMARK INTER + INTRA:         -12.113
REMARK INTER:                 -11.549
REMARK INTRA:                  -0.564
REMARK UNBOUND:                -0.499
REMARK  Name = ZINC000003996161
REMARK  4 active torsions:
REMARK  status: ('A' for Active; 'I' for Inactive)
REMARK    1  A    between atoms: C_2  and  O_3
REMARK    2  A    between atoms: C_2  and  C_15
REMARK    3  A    between atoms: O_3  and  C_4
REMARK    4  A    between atoms: C_4  and  C_5
REMARK                            x       y       z     vdW  Elec       q    Type
REMARK                         _______ _______ _______ _____ _____    ______ ____
ROOT
ATOM      1  C   UNL     1      -1.351   4.315 -24.251  0.00  0.00    +0.241 C 
ENDROOT
BRANCH   1   2
ATOM      2  C   UNL     1      -2.633   4.143 -24.110  0.00  0.00    +0.075 C 
ATOM      3  C   UNL     1      -3.439   4.440 -25.085  0.00  0.00    +0.017 C 
ATOM      4  C   UNL     1      -4.720   4.268 -24.944  0.00  0.00    +0.051 C 
ATOM      5  C   UNL     1      -5.193   3.800 -23.826  0.00  0.00    +0.131 C 
ATOM      6  N   UNL     1      -4.387   3.503 -22.852  0.00  0.00    +0.238 N 
ATOM      7  H   UNL     1      -5.179   3.213 -22.280  0.00  0.00    +0.204 HD
ATOM      8  C   UNL     1      -4.860   3.035 -21.736  0.00  0.00    +0.131 C 
ATOM      9  C   UNL     1      -4.053   2.739 -20.760  0.00  0.00    +0.051 C 
ATOM     10  C   UNL     1      -2.772   2.911 -20.903  0.00  0.00    +0.011 C 
ATOM     11  C   UNL     1      -2.299   3.379 -22.019  0.00  0.00    +0.055 C 
ATOM     12  C   UNL     1      -3.106   3.675 -22.993  0.00  0.00    +0.071 C 
ENDBRANCH   1   2
BRANCH   1  13
ATOM     13  O   UNL     1      -0.631   3.394 -24.819  0.00  0.00    -0.461 OA
BRANCH  13  15
ATOM     14  O   UNL     1       1.159   4.155 -25.955  0.00  0.00    -0.245 OA
ATOM     15  C   UNL     1       0.657   3.547 -24.921  0.00  0.00    +0.339 C 
BRANCH  15  16
ATOM     16  C   UNL     1       1.441   3.092 -23.991  0.00  0.00    +0.060 A 
ATOM     17  C   UNL     1       0.989   2.241 -23.118  0.00  0.00    +0.015 A 
ATOM     18  C   UNL     1       1.774   1.786 -22.187  0.00  0.00    +0.002 A 
ATOM     19  C   UNL     1       3.011   2.182 -22.128  0.00  0.00    +0.015 A 
ATOM     20  C   UNL     1       3.462   3.034 -23.001  0.00  0.00    +0.019 A 
ATOM     21 BR   UNL     1       4.699   3.431 -22.942  0.00  0.00    -0.050 Br
ATOM     22  C   UNL     1       2.678   3.489 -23.932  0.00  0.00    +0.030 A 
ENDBRANCH  15  16
ENDBRANCH  13  15
ENDBRANCH   1  13
TORSDOF 4
ENDMDL
MODEL 4
REMARK VINA RESULT:    -9.350      1.229      2.694
REMARK INTER + INTRA:         -12.035
REMARK INTER:                 -11.572
REMARK INTRA:                  -0.464
REMARK UNBOUND:                -0.499
REMARK  Name = ZINC000003996161
REMARK  4 active torsions:
REMARK  status: ('A' for Active; 'I' for Inactive)
REMARK    1  A    between atoms: C_2  and  O_3
REMARK    2  A    between atoms: C_2  and  C_15
REMARK    3  A    between atoms: O_3  and  C_4
REMARK    4  A    between atoms: C_4  and  C_5
REMARK                            x       y       z     vdW  Elec       q    Type
REMARK                         _______ _______ _______ _____ _____    ______ ____
ROOT
ATOM      1  C   UNL     1      -0.946   2.223 -22.938  0.00  0.00    +0.241 C 
ENDROOT
BRANCH   1   2
ATOM      2  C   UNL     1      -2.136   2.591 -22.564  0.00  0.00    +0.075 C 
ATOM      3  C   UNL     1      -2.469   2.533 -21.309  0.00  0.00    +0.017 C 
ATOM      4  C   UNL     1      -3.659   2.901 -20.936  0.00  0.00    +0.051 C 
ATOM      5  C   UNL     1      -4.514   3.327 -21.818  0.00  0.00    +0.131 C 
ATOM      6  N   UNL     1      -4.181   3.385 -23.072  0.00  0.00    +0.238 N 
ATOM      7  H   UNL     1      -5.106   3.744 -23.305  0.00  0.00    +0.204 HD
ATOM      8  C   UNL     1      -5.036   3.811 -23.954  0.00  0.00    +0.131 C 
ATOM      9  C   UNL     1      -4.702   3.869 -25.209  0.00  0.00    +0.051 C 
ATOM     10  C   UNL     1      -3.512   3.501 -25.582  0.00  0.00    +0.011 C 
ATOM     11  C   UNL     1      -2.657   3.075 -24.700  0.00  0.00    +0.055 C 
ATOM     12  C   UNL     1      -2.991   3.017 -23.446  0.00  0.00    +0.071 C 
ENDBRANCH   1   2
BRANCH   1  13
ATOM     13  O   UNL     1      -0.353   1.235 -22.338  0.00  0.00    -0.461 OA
BRANCH  13  15
ATOM     14  O   UNL     1       0.879   1.330 -20.455  0.00  0.00    -0.245 OA
ATOM     15  C   UNL     1       0.791   1.424 -21.748  0.00  0.00    +0.339 C 
BRANCH  15  16
ATOM     16  C   UNL     1       1.845   1.707 -22.452  0.00  0.00    +0.060 A 
ATOM     17  C   UNL     1       2.414   0.786 -23.171  0.00  0.00    +0.015 A 
ATOM     18  C   UNL     1       3.469   1.070 -23.876  0.00  0.00    +0.002 A 
ATOM     19  C   UNL     1       3.955   2.275 -23.862  0.00  0.00    +0.015 A 
ATOM     20  C   UNL     1       3.386   3.197 -23.143  0.00  0.00    +0.019 A 
ATOM     21 BR   UNL     1       3.872   4.402 -23.128  0.00  0.00    -0.050 Br
ATOM     22  C   UNL     1       2.332   2.914 -22.438  0.00  0.00    +0.030 A 
ENDBRANCH  15  16
ENDBRANCH  13  15
ENDBRANCH   1  13
TORSDOF 4
ENDMDL
MODEL 5
REMARK VINA RESULT:    -9.140      3.204      6.697
REMARK INTER + INTRA:         -11.776
REMARK INTER:                 -11.141
REMARK INTRA:                  -0.635
REMARK UNBOUND:                -0.499
REMARK  Name = ZINC000003996161
REMARK  4 active torsions:
REMARK  status: ('A' for Active; 'I' for Inactive)
REMARK    1  A    between atoms: C_2  and  O_3
REMARK    2  A    between atoms: C_2  and  C_15
REMARK    3  A    between atoms: O_3  and  C_4
REMARK    4  A    between atoms: C_4  and  C_5
REMARK                            x       y       z     vdW  Elec       q    Type
REMARK                         _______ _______ _______ _____ _____    ______ ____
ROOT
ATOM      1  C   UNL     1      -0.324   2.086 -21.749  0.00  0.00    +0.241 C 
ENDROOT
BRANCH   1   2
ATOM      2  C   UNL     1       0.473   2.243 -22.765  0.00  0.00    +0.075 C 
ATOM      3  C   UNL     1       0.049   2.849 -23.835  0.00  0.00    +0.017 C 
ATOM      4  C   UNL     1       0.846   3.006 -24.851  0.00  0.00    +0.051 C 
ATOM      5  C   UNL     1       2.065   2.558 -24.795  0.00  0.00    +0.131 C 
ATOM      6  N   UNL     1       2.488   1.953 -23.726  0.00  0.00    +0.238 N 
ATOM      7  H   UNL     1       3.402   1.820 -24.158  0.00  0.00    +0.204 HD
ATOM      8  C   UNL     1       3.707   1.505 -23.671  0.00  0.00    +0.131 C 
ATOM      9  C   UNL     1       4.130   0.900 -22.600  0.00  0.00    +0.051 C 
ATOM     10  C   UNL     1       3.333   0.743 -21.586  0.00  0.00    +0.011 C 
ATOM     11  C   UNL     1       2.114   1.191 -21.640  0.00  0.00    +0.055 C 
ATOM     12  C   UNL     1       1.692   1.796 -22.711  0.00  0.00    +0.071 C 
ENDBRANCH   1   2
BRANCH   1  13
ATOM     13  O   UNL     1      -1.595   1.895 -21.944  0.00  0.00    -0.461 OA
BRANCH  13  15
ATOM     14  O   UNL     1      -2.285   3.257 -20.289  0.00  0.00    -0.245 OA
ATOM     15  C   UNL     1      -2.460   2.743 -21.470  0.00  0.00    +0.339 C 
BRANCH  15  16
ATOM     16  C   UNL     1      -3.498   3.076 -22.177  0.00  0.00    +0.060 A 
ATOM     17  C   UNL     1      -4.687   3.013 -21.656  0.00  0.00    +0.015 A 
ATOM     18  C   UNL     1      -5.726   3.347 -22.364  0.00  0.00    +0.002 A 
ATOM     19  C   UNL     1      -5.574   3.742 -23.593  0.00  0.00    +0.015 A 
ATOM     20  C   UNL     1      -4.384   3.805 -24.114  0.00  0.00    +0.019 A 
ATOM     21 BR   UNL     1      -4.233   4.201 -25.343  0.00  0.00    -0.050 Br
ATOM     22  C   UNL     1      -3.346   3.472 -23.407  0.00  0.00    +0.030 A 
ENDBRANCH  15  16
ENDBRANCH  13  15
ENDBRANCH   1  13
TORSDOF 4
ENDMDL
MODEL 6
REMARK VINA RESULT:    -9.131      1.485      2.578
REMARK INTER + INTRA:         -11.765
REMARK INTER:                 -10.956
REMARK INTRA:                  -0.809
REMARK UNBOUND:                -0.499
REMARK  Name = ZINC000003996161
REMARK  4 active torsions:
REMARK  status: ('A' for Active; 'I' for Inactive)
REMARK    1  A    between atoms: C_2  and  O_3
REMARK    2  A    between atoms: C_2  and  C_15
REMARK    3  A    between atoms: O_3  and  C_4
REMARK    4  A    between atoms: C_4  and  C_5
REMARK                            x       y       z     vdW  Elec       q    Type
REMARK                         _______ _______ _______ _____ _____    ______ ____
ROOT
ATOM      1  C   UNL     1      -0.895   3.296 -24.161  0.00  0.00    +0.241 C 
ENDROOT
BRANCH   1   2
ATOM      2  C   UNL     1      -1.720   3.160 -23.165  0.00  0.00    +0.075 C 
ATOM      3  C   UNL     1      -1.275   2.800 -21.998  0.00  0.00    +0.017 C 
ATOM      4  C   UNL     1      -2.100   2.664 -21.002  0.00  0.00    +0.051 C 
ATOM      5  C   UNL     1      -3.369   2.889 -21.174  0.00  0.00    +0.131 C 
ATOM      6  N   UNL     1      -3.813   3.249 -22.341  0.00  0.00    +0.238 N 
ATOM      7  H   UNL     1      -4.762   3.290 -21.970  0.00  0.00    +0.204 HD
ATOM      8  C   UNL     1      -5.082   3.474 -22.512  0.00  0.00    +0.131 C 
ATOM      9  C   UNL     1      -5.526   3.835 -23.680  0.00  0.00    +0.051 C 
ATOM     10  C   UNL     1      -4.701   3.970 -24.675  0.00  0.00    +0.011 C 
ATOM     11  C   UNL     1      -3.432   3.745 -24.504  0.00  0.00    +0.055 C 
ATOM     12  C   UNL     1      -2.989   3.385 -23.336  0.00  0.00    +0.071 C 
ENDBRANCH   1   2
BRANCH   1  13
ATOM     13  O   UNL     1       0.092   2.463 -24.305  0.00  0.00    -0.461 OA
BRANCH  13  15
ATOM     14  O   UNL     1       1.455   3.422 -25.820  0.00  0.00    -0.245 OA
ATOM     15  C   UNL     1       1.269   2.901 -24.643  0.00  0.00    +0.339 C 
BRANCH  15  16
ATOM     16  C   UNL     1       2.258   2.819 -23.805  0.00  0.00    +0.060 A 
ATOM     17  C   UNL     1       3.203   3.711 -23.824  0.00  0.00    +0.015 A 
ATOM     18  C   UNL     1       4.193   3.628 -22.984  0.00  0.00    +0.002 A 
ATOM     19  C   UNL     1       4.237   2.653 -22.126  0.00  0.00    +0.015 A 
ATOM     20  C   UNL     1       3.291   1.760 -22.107  0.00  0.00    +0.019 A 
ATOM     21 BR   UNL     1       3.335   0.785 -21.249  0.00  0.00    -0.050 Br
ATOM     22  C   UNL     1       2.302   1.843 -22.946  0.00  0.00    +0.030 A 
ENDBRANCH  15  16
ENDBRANCH  13  15
ENDBRANCH   1  13
TORSDOF 4
ENDMDL
MODEL 7
REMARK VINA RESULT:    -8.928      3.140      6.927
REMARK INTER + INTRA:         -11.515
REMARK INTER:                 -10.884
REMARK INTRA:                  -0.631
REMARK UNBOUND:                -0.499
REMARK  Name = ZINC000003996161
REMARK  4 active torsions:
REMARK  status: ('A' for Active; 'I' for Inactive)
REMARK    1  A    between atoms: C_2  and  O_3
REMARK    2  A    between atoms: C_2  and  C_15
REMARK    3  A    between atoms: O_3  and  C_4
REMARK    4  A    between atoms: C_4  and  C_5
REMARK                            x       y       z     vdW  Elec       q    Type
REMARK                         _______ _______ _______ _____ _____    ______ ____
ROOT
ATOM      1  C   UNL     1       0.593   3.451 -25.022  0.00  0.00    +0.241 C 
ENDROOT
BRANCH   1   2
ATOM      2  C   UNL     1       1.585   3.852 -24.282  0.00  0.00    +0.075 C 
ATOM      3  C   UNL     1       1.651   5.094 -23.903  0.00  0.00    +0.017 C 
ATOM      4  C   UNL     1       2.642   5.495 -23.163  0.00  0.00    +0.051 C 
ATOM      5  C   UNL     1       3.566   4.653 -22.803  0.00  0.00    +0.131 C 
ATOM      6  N   UNL     1       3.499   3.412 -23.182  0.00  0.00    +0.238 N 
ATOM      7  H   UNL     1       4.366   3.210 -22.685  0.00  0.00    +0.204 HD
ATOM      8  C   UNL     1       4.423   2.572 -22.822  0.00  0.00    +0.131 C 
ATOM      9  C   UNL     1       4.356   1.330 -23.201  0.00  0.00    +0.051 C 
ATOM     10  C   UNL     1       3.364   0.930 -23.941  0.00  0.00    +0.011 C 
ATOM     11  C   UNL     1       2.441   1.770 -24.301  0.00  0.00    +0.055 C 
ATOM     12  C   UNL     1       2.508   3.012 -23.922  0.00  0.00    +0.071 C 
ENDBRANCH   1   2
BRANCH   1  13
ATOM     13  O   UNL     1      -0.616   3.847 -24.758  0.00  0.00    -0.461 OA
BRANCH  13  15
ATOM     14  O   UNL     1      -1.032   1.912 -23.685  0.00  0.00    -0.245 OA
ATOM     15  C   UNL     1      -1.453   3.038 -24.177  0.00  0.00    +0.339 C 
BRANCH  15  16
ATOM     16  C   UNL     1      -2.710   3.357 -24.090  0.00  0.00    +0.060 A 
ATOM     17  C   UNL     1      -3.297   3.962 -25.079  0.00  0.00    +0.015 A 
ATOM     18  C   UNL     1      -4.555   4.281 -24.991  0.00  0.00    +0.002 A 
ATOM     19  C   UNL     1      -5.224   3.995 -23.914  0.00  0.00    +0.015 A 
ATOM     20  C   UNL     1      -4.636   3.390 -22.925  0.00  0.00    +0.019 A 
ATOM     21 BR   UNL     1      -5.305   3.104 -21.848  0.00  0.00    -0.050 Br
ATOM     22  C   UNL     1      -3.379   3.071 -23.012  0.00  0.00    +0.030 A 
ENDBRANCH  15  16
ENDBRANCH  13  15
ENDBRANCH   1  13
TORSDOF 4
ENDMDL
MODEL 8
REMARK VINA RESULT:    -8.610      1.757      2.264
REMARK INTER + INTRA:         -11.123
REMARK INTER:                 -10.800
REMARK INTRA:                  -0.323
REMARK UNBOUND:                -0.499
REMARK  Name = ZINC000003996161
REMARK  4 active torsions:
REMARK  status: ('A' for Active; 'I' for Inactive)
REMARK    1  A    between atoms: C_2  and  O_3
REMARK    2  A    between atoms: C_2  and  C_15
REMARK    3  A    between atoms: O_3  and  C_4
REMARK    4  A    between atoms: C_4  and  C_5
REMARK                            x       y       z     vdW  Elec       q    Type
REMARK                         _______ _______ _______ _____ _____    ______ ____
ROOT
ATOM      1  C   UNL     1      -0.176   4.252 -23.135  0.00  0.00    +0.241 C 
ENDROOT
BRANCH   1   2
ATOM      2  C   UNL     1      -1.348   3.949 -23.613  0.00  0.00    +0.075 C 
ATOM      3  C   UNL     1      -1.511   3.816 -24.896  0.00  0.00    +0.017 C 
ATOM      4  C   UNL     1      -2.681   3.512 -25.374  0.00  0.00    +0.051 C 
ATOM      5  C   UNL     1      -3.688   3.343 -24.568  0.00  0.00    +0.131 C 
ATOM      6  N   UNL     1      -3.524   3.476 -23.286  0.00  0.00    +0.238 N 
ATOM      7  H   UNL     1      -4.510   3.263 -23.135  0.00  0.00    +0.204 HD
ATOM      8  C   UNL     1      -4.531   3.307 -22.481  0.00  0.00    +0.131 C 
ATOM      9  C   UNL     1      -4.367   3.440 -21.198  0.00  0.00    +0.051 C 
ATOM     10  C   UNL     1      -3.196   3.743 -20.721  0.00  0.00    +0.011 C 
ATOM     11  C   UNL     1      -2.190   3.913 -21.526  0.00  0.00    +0.055 C 
ATOM     12  C   UNL     1      -2.354   3.779 -22.808  0.00  0.00    +0.071 C 
ENDBRANCH   1   2
BRANCH   1  13
ATOM     13  O   UNL     1       0.834   4.400 -23.938  0.00  0.00    -0.461 OA
BRANCH  13  15
ATOM     14  O   UNL     1       2.242   6.026 -23.270  0.00  0.00    -0.245 OA
ATOM     15  C   UNL     1       1.990   4.766 -23.468  0.00  0.00    +0.339 C 
BRANCH  15  16
ATOM     16  C   UNL     1       2.893   3.873 -23.195  0.00  0.00    +0.060 A 
ATOM     17  C   UNL     1       4.154   4.183 -23.255  0.00  0.00    +0.015 A 
ATOM     18  C   UNL     1       5.058   3.288 -22.982  0.00  0.00    +0.002 A 
ATOM     19  C   UNL     1       4.699   2.083 -22.650  0.00  0.00    +0.015 A 
ATOM     20  C   UNL     1       3.438   1.773 -22.590  0.00  0.00    +0.019 A 
ATOM     21 BR   UNL     1       3.080   0.568 -22.258  0.00  0.00    -0.050 Br
ATOM     22  C   UNL     1       2.535   2.667 -22.863  0.00  0.00    +0.030 A 
ENDBRANCH  15  16
ENDBRANCH  13  15
ENDBRANCH   1  13
TORSDOF 4
ENDMDL
MODEL 9
REMARK VINA RESULT:    -8.572      3.365      7.290
REMARK INTER + INTRA:         -11.076
REMARK INTER:                 -10.577
REMARK INTRA:                  -0.499
REMARK UNBOUND:                -0.499
REMARK  Name = ZINC000003996161
REMARK  4 active torsions:
REMARK  status: ('A' for Active; 'I' for Inactive)
REMARK    1  A    between atoms: C_2  and  O_3
REMARK    2  A    between atoms: C_2  and  C_15
REMARK    3  A    between atoms: O_3  and  C_4
REMARK    4  A    between atoms: C_4  and  C_5
REMARK                            x       y       z     vdW  Elec       q    Type
REMARK                         _______ _______ _______ _____ _____    ______ ____
ROOT
ATOM      1  C   UNL     1       1.077   3.017 -23.252  0.00  0.00    +0.241 C 
ENDROOT
BRANCH   1   2
ATOM      2  C   UNL     1       2.093   2.327 -22.822  0.00  0.00    +0.075 C 
ATOM      3  C   UNL     1       1.923   1.101 -22.423  0.00  0.00    +0.017 C 
ATOM      4  C   UNL     1       2.938   0.412 -21.993  0.00  0.00    +0.051 C 
ATOM      5  C   UNL     1       4.122   0.948 -21.964  0.00  0.00    +0.131 C 
ATOM      6  N   UNL     1       4.291   2.173 -22.363  0.00  0.00    +0.238 N 
ATOM      7  H   UNL     1       5.287   2.107 -22.156  0.00  0.00    +0.204 HD
ATOM      8  C   UNL     1       5.475   2.709 -22.333  0.00  0.00    +0.131 C 
ATOM      9  C   UNL     1       5.644   3.935 -22.732  0.00  0.00    +0.051 C 
ATOM     10  C   UNL     1       4.628   4.624 -23.162  0.00  0.00    +0.011 C 
ATOM     11  C   UNL     1       3.445   4.088 -23.191  0.00  0.00    +0.055 C 
ATOM     12  C   UNL     1       3.276   2.863 -22.792  0.00  0.00    +0.071 C 
ENDBRANCH   1   2
BRANCH   1  13
ATOM     13  O   UNL     1      -0.074   2.438 -23.426  0.00  0.00    -0.461 OA
BRANCH  13  15
ATOM     14  O   UNL     1      -1.222   3.791 -24.813  0.00  0.00    -0.245 OA
ATOM     15  C   UNL     1      -1.129   3.154 -23.684  0.00  0.00    +0.339 C 
BRANCH  15  16
ATOM     16  C   UNL     1      -2.089   3.233 -22.812  0.00  0.00    +0.060 A 
ATOM     17  C   UNL     1      -1.815   3.231 -21.541  0.00  0.00    +0.015 A 
ATOM     18  C   UNL     1      -2.776   3.310 -20.669  0.00  0.00    +0.002 A 
ATOM     19  C   UNL     1      -4.011   3.391 -21.068  0.00  0.00    +0.015 A 
ATOM     20  C   UNL     1      -4.284   3.393 -22.339  0.00  0.00    +0.019 A 
ATOM     21 BR   UNL     1      -5.519   3.475 -22.738  0.00  0.00    -0.050 Br
ATOM     22  C   UNL     1      -3.324   3.315 -23.211  0.00  0.00    +0.030 A 
ENDBRANCH  15  16
ENDBRANCH  13  15
ENDBRANCH   1  13
TORSDOF 4
ENDMDL
