MODEL 1
REMARK VINA RESULT:    -9.457      0.000      0.000
REMARK INTER + INTRA:         -11.815
REMARK INTER:                 -11.466
REMARK INTRA:                  -0.349
REMARK UNBOUND:                -0.699
REMARK  Name = COc1ccc2c(c1Oc1ccccc1)[C@]13CCN(C)[C@H](C2)[C@@H]1[C@H](C)CC(=O)C3   ZINC000096316420
REMARK  6 active torsions:
REMARK  status: ('A' for Active; 'I' for Inactive)
REMARK    1  A    between atoms: C_1  and  O_2
REMARK    2  A    between atoms: O_2  and  C_3
REMARK    3  A    between atoms: C_8  and  O_9
REMARK    4  A    between atoms: O_9  and  C_10
REMARK    5  A    between atoms: N_19  and  C_20
REMARK    6  A    between atoms: C_24  and  C_25
REMARK                            x       y       z     vdW  Elec       q    Type
REMARK                         _______ _______ _______ _____ _____    ______ ____
ROOT
ATOM      1  C   UNL     1      -1.789   2.702 -21.162  0.00  0.00    +0.162 A 
ATOM      2  C   UNL     1      -2.937   2.707 -20.640  0.00  0.00    +0.050 A 
ATOM      3  C   UNL     1      -3.936   2.926 -21.378  0.00  0.00    +0.008 A 
ATOM      4  C   UNL     1      -3.728   3.165 -22.806  0.00  0.00    -0.035 A 
ATOM      5  C   UNL     1      -2.738   3.145 -23.169  0.00  0.00    +0.009 A 
ATOM      6  C   UNL     1      -2.385   3.271 -24.043  0.00  0.00    +0.019 C 
ATOM      7  C   UNL     1      -2.813   3.020 -22.440  0.00  0.00    +0.063 C 
ATOM      8  C   UNL     1      -4.225   3.073 -22.056  0.00  0.00    +0.132 C 
ATOM      9  N   UNL     1      -5.031   3.289 -22.872  0.00  0.00    +0.236 N 
ATOM     10  H   UNL     1      -5.469   3.489 -23.771  0.00  0.00    +0.203 HD
ATOM     11  C   UNL     1      -4.652   3.529 -24.385  0.00  0.00    +0.073 C 
ATOM     12  C   UNL     1      -5.986   3.207 -21.957  0.00  0.00    +0.190 C 
ATOM     13  C   UNL     1      -1.210   3.248 -24.479  0.00  0.00    +0.086 C 
ATOM     14  C   UNL     1      -0.994   3.456 -25.737  0.00  0.00    +0.134 C 
ATOM     15  O   UNL     1       0.200   3.435 -26.192  0.00  0.00    -0.297 OA
ATOM     16  C   UNL     1      -1.981   3.690 -26.567  0.00  0.00    +0.078 C 
ATOM     17  C   UNL     1      -3.202   3.721 -26.151  0.00  0.00    +0.002 C 
ATOM     18  C   UNL     1      -4.167   3.951 -26.963  0.00  0.00    +0.008 C 
ATOM     19  C   UNL     1      -3.458   3.525 -24.939  0.00  0.00    +0.052 C 
ATOM     20  C   UNL     1      -4.733   3.383 -23.539  0.00  0.00    +0.090 C 
ATOM     21  C   UNL     1      -1.676   2.919 -22.425  0.00  0.00    +0.174 A 
ENDROOT
BRANCH   1  23
ATOM     22  C   UNL     1       0.126   1.456 -20.613  0.00  0.00    +0.277 C 
ATOM     23  O   UNL     1      -0.580   2.492 -20.575  0.00  0.00    -0.491 OA
ENDBRANCH   1  23
BRANCH  21  24
ATOM     24  O   UNL     1      -0.409   2.982 -23.381  0.00  0.00    -0.452 OA
BRANCH  24  25
ATOM     25  C   UNL     1       0.813   3.660 -23.335  0.00  0.00    +0.129 A 
ATOM     26  C   UNL     1       1.845   2.905 -23.338  0.00  0.00    +0.046 A 
ATOM     27  C   UNL     1       3.012   3.423 -23.298  0.00  0.00    +0.004 A 
ATOM     28  C   UNL     1       3.147   4.691 -23.257  0.00  0.00    +0.000 A 
ATOM     29  C   UNL     1       2.116   5.448 -23.254  0.00  0.00    +0.004 A 
ATOM     30  C   UNL     1       0.947   4.931 -23.293  0.00  0.00    +0.046 A 
ENDBRANCH  24  25
ENDBRANCH  21  24
TORSDOF 3
ENDMDL
MODEL 2
REMARK VINA RESULT:    -9.150      1.305      2.082
REMARK INTER + INTRA:         -11.454
REMARK INTER:                 -10.720
REMARK INTRA:                  -0.733
REMARK UNBOUND:                -0.699
REMARK  Name = COc1ccc2c(c1Oc1ccccc1)[C@]13CCN(C)[C@H](C2)[C@@H]1[C@H](C)CC(=O)C3   ZINC000096316420
REMARK  6 active torsions:
REMARK  status: ('A' for Active; 'I' for Inactive)
REMARK    1  A    between atoms: C_1  and  O_2
REMARK    2  A    between atoms: O_2  and  C_3
REMARK    3  A    between atoms: C_8  and  O_9
REMARK    4  A    between atoms: O_9  and  C_10
REMARK    5  A    between atoms: N_19  and  C_20
REMARK    6  A    between atoms: C_24  and  C_25
REMARK                            x       y       z     vdW  Elec       q    Type
REMARK                         _______ _______ _______ _____ _____    ______ ____
ROOT
ATOM      1  C   UNL     1       0.235   1.519 -21.267  0.00  0.00    +0.162 A 
ATOM      2  C   UNL     1      -0.795   1.384 -20.552  0.00  0.00    +0.050 A 
ATOM      3  C   UNL     1      -1.904   1.773 -21.009  0.00  0.00    +0.008 A 
ATOM      4  C   UNL     1      -1.955   2.365 -22.346  0.00  0.00    -0.035 A 
ATOM      5  C   UNL     1      -1.051   2.444 -22.884  0.00  0.00    +0.009 A 
ATOM      6  C   UNL     1      -0.863   2.789 -23.750  0.00  0.00    +0.019 C 
ATOM      7  C   UNL     1      -0.995   2.139 -22.207  0.00  0.00    +0.063 C 
ATOM      8  C   UNL     1      -2.308   2.083 -21.562  0.00  0.00    +0.132 C 
ATOM      9  N   UNL     1      -3.242   2.491 -22.131  0.00  0.00    +0.236 N 
ATOM     10  H   UNL     1      -3.831   2.907 -22.852  0.00  0.00    +0.203 HD
ATOM     11  C   UNL     1      -3.141   3.106 -23.581  0.00  0.00    +0.073 C 
ATOM     12  C   UNL     1      -4.014   2.175 -21.101  0.00  0.00    +0.190 C 
ATOM     13  C   UNL     1       0.210   2.885 -24.393  0.00  0.00    +0.086 C 
ATOM     14  C   UNL     1       0.196   3.403 -25.577  0.00  0.00    +0.134 C 
ATOM     15  O   UNL     1       1.283   3.506 -26.241  0.00  0.00    -0.297 OA
ATOM     16  C   UNL     1      -0.917   3.831 -26.120  0.00  0.00    +0.078 C 
ATOM     17  C   UNL     1      -2.038   3.747 -25.486  0.00  0.00    +0.002 C 
ATOM     18  C   UNL     1      -3.127   4.165 -26.017  0.00  0.00    +0.008 C 
ATOM     19  C   UNL     1      -2.072   3.251 -24.334  0.00  0.00    +0.052 C 
ATOM     20  C   UNL     1      -3.069   2.752 -22.797  0.00  0.00    +0.090 C 
ATOM     21  C   UNL     1       0.120   2.047 -22.434  0.00  0.00    +0.174 A 
ENDROOT
BRANCH   1  23
ATOM     22  C   UNL     1       2.283   1.676 -20.127  0.00  0.00    +0.277 C 
ATOM     23  O   UNL     1       1.522   1.177 -20.990  0.00  0.00    -0.491 OA
ENDBRANCH   1  23
BRANCH  21  24
ATOM     24  O   UNL     1       1.189   2.357 -23.567  0.00  0.00    -0.452 OA
BRANCH  24  25
ATOM     25  C   UNL     1       2.518   2.793 -23.560  0.00  0.00    +0.129 A 
ATOM     26  C   UNL     1       2.681   4.005 -23.186  0.00  0.00    +0.046 A 
ATOM     27  C   UNL     1       3.856   4.505 -23.143  0.00  0.00    +0.004 A 
ATOM     28  C   UNL     1       4.864   3.796 -23.471  0.00  0.00    +0.000 A 
ATOM     29  C   UNL     1       4.702   2.583 -23.846  0.00  0.00    +0.004 A 
ATOM     30  C   UNL     1       3.527   2.082 -23.889  0.00  0.00    +0.046 A 
ENDBRANCH  24  25
ENDBRANCH  21  24
TORSDOF 3
ENDMDL
MODEL 3
REMARK VINA RESULT:    -8.710      1.389      3.925
REMARK INTER + INTRA:         -10.937
REMARK INTER:                 -10.521
REMARK INTRA:                  -0.416
REMARK UNBOUND:                -0.699
REMARK  Name = COc1ccc2c(c1Oc1ccccc1)[C@]13CCN(C)[C@H](C2)[C@@H]1[C@H](C)CC(=O)C3   ZINC000096316420
REMARK  6 active torsions:
REMARK  status: ('A' for Active; 'I' for Inactive)
REMARK    1  A    between atoms: C_1  and  O_2
REMARK    2  A    between atoms: O_2  and  C_3
REMARK    3  A    between atoms: C_8  and  O_9
REMARK    4  A    between atoms: O_9  and  C_10
REMARK    5  A    between atoms: N_19  and  C_20
REMARK    6  A    between atoms: C_24  and  C_25
REMARK                            x       y       z     vdW  Elec       q    Type
REMARK                         _______ _______ _______ _____ _____    ______ ____
ROOT
ATOM      1  C   UNL     1       0.111   3.214 -25.481  0.00  0.00    +0.162 A 
ATOM      2  C   UNL     1      -0.778   3.680 -26.244  0.00  0.00    +0.050 A 
ATOM      3  C   UNL     1      -1.957   3.782 -25.808  0.00  0.00    +0.008 A 
ATOM      4  C   UNL     1      -2.249   3.359 -24.438  0.00  0.00    -0.035 A 
ATOM      5  C   UNL     1      -1.453   2.979 -23.860  0.00  0.00    +0.009 A 
ATOM      6  C   UNL     1      -1.423   2.654 -22.967  0.00  0.00    +0.019 C 
ATOM      7  C   UNL     1      -1.275   3.186 -24.552  0.00  0.00    +0.063 C 
ATOM      8  C   UNL     1      -2.456   3.694 -25.253  0.00  0.00    +0.132 C 
ATOM      9  N   UNL     1      -3.482   3.720 -24.697  0.00  0.00    +0.236 N 
ATOM     10  H   UNL     1      -4.195   3.619 -23.975  0.00  0.00    +0.203 HD
ATOM     11  C   UNL     1      -3.645   3.225 -23.208  0.00  0.00    +0.073 C 
ATOM     12  C   UNL     1      -4.059   4.230 -25.776  0.00  0.00    +0.190 C 
ATOM     13  C   UNL     1      -0.479   2.202 -22.276  0.00  0.00    +0.086 C 
ATOM     14  C   UNL     1      -0.707   1.820 -21.062  0.00  0.00    +0.134 C 
ATOM     15  O   UNL     1       0.248   1.357 -20.349  0.00  0.00    -0.297 OA
ATOM     16  C   UNL     1      -1.905   1.895 -20.538  0.00  0.00    +0.078 C 
ATOM     17  C   UNL     1      -2.898   2.355 -21.222  0.00  0.00    +0.002 C 
ATOM     18  C   UNL     1      -4.071   2.429 -20.709  0.00  0.00    +0.008 C 
ATOM     19  C   UNL     1      -2.724   2.738 -22.403  0.00  0.00    +0.052 C 
ATOM     20  C   UNL     1      -3.432   3.464 -24.009  0.00  0.00    +0.090 C 
ATOM     21  C   UNL     1      -0.214   2.860 -24.287  0.00  0.00    +0.174 A 
ENDROOT
BRANCH   1  23
ATOM     22  C   UNL     1       1.984   1.983 -26.184  0.00  0.00    +0.277 C 
ATOM     23  O   UNL     1       1.433   3.012 -25.726  0.00  0.00    -0.491 OA
ENDBRANCH   1  23
BRANCH  21  24
ATOM     24  O   UNL     1       0.639   2.249 -23.094  0.00  0.00    -0.452 OA
BRANCH  24  25
ATOM     25  C   UNL     1       2.007   2.147 -22.827  0.00  0.00    +0.129 A 
ATOM     26  C   UNL     1       2.456   0.951 -22.778  0.00  0.00    +0.046 A 
ATOM     27  C   UNL     1       3.694   0.745 -22.540  0.00  0.00    +0.004 A 
ATOM     28  C   UNL     1       4.481   1.730 -22.352  0.00  0.00    +0.000 A 
ATOM     29  C   UNL     1       4.034   2.929 -22.400  0.00  0.00    +0.004 A 
ATOM     30  C   UNL     1       2.795   3.136 -22.638  0.00  0.00    +0.046 A 
ENDBRANCH  24  25
ENDBRANCH  21  24
TORSDOF 3
ENDMDL
MODEL 4
REMARK VINA RESULT:    -7.374      2.804      7.149
REMARK INTER + INTRA:          -9.367
REMARK INTER:                  -9.128
REMARK INTRA:                  -0.239
REMARK UNBOUND:                -0.699
REMARK  Name = COc1ccc2c(c1Oc1ccccc1)[C@]13CCN(C)[C@H](C2)[C@@H]1[C@H](C)CC(=O)C3   ZINC000096316420
REMARK  6 active torsions:
REMARK  status: ('A' for Active; 'I' for Inactive)
REMARK    1  A    between atoms: C_1  and  O_2
REMARK    2  A    between atoms: O_2  and  C_3
REMARK    3  A    between atoms: C_8  and  O_9
REMARK    4  A    between atoms: O_9  and  C_10
REMARK    5  A    between atoms: N_19  and  C_20
REMARK    6  A    between atoms: C_24  and  C_25
REMARK                            x       y       z     vdW  Elec       q    Type
REMARK                         _______ _______ _______ _____ _____    ______ ____
ROOT
ATOM      1  C   UNL     1       1.854   5.214 -23.368  0.00  0.00    +0.162 A 
ATOM      2  C   UNL     1       2.825   6.019 -23.361  0.00  0.00    +0.050 A 
ATOM      3  C   UNL     1       3.970   5.583 -23.062  0.00  0.00    +0.008 A 
ATOM      4  C   UNL     1       4.130   4.165 -22.736  0.00  0.00    -0.035 A 
ATOM      5  C   UNL     1       3.271   3.554 -22.764  0.00  0.00    +0.009 A 
ATOM      6  C   UNL     1       3.153   2.627 -22.591  0.00  0.00    +0.019 C 
ATOM      7  C   UNL     1       3.160   4.270 -22.934  0.00  0.00    +0.063 C 
ATOM      8  C   UNL     1       4.419   5.014 -22.862  0.00  0.00    +0.132 C 
ATOM      9  N   UNL     1       5.398   4.452 -22.567  0.00  0.00    +0.236 N 
ATOM     10  H   UNL     1       6.045   3.712 -22.295  0.00  0.00    +0.203 HD
ATOM     11  C   UNL     1       5.416   2.908 -22.241  0.00  0.00    +0.073 C 
ATOM     12  C   UNL     1       6.085   5.579 -22.679  0.00  0.00    +0.190 C 
ATOM     13  C   UNL     1       2.134   1.896 -22.623  0.00  0.00    +0.086 C 
ATOM     14  C   UNL     1       2.244   0.639 -22.340  0.00  0.00    +0.134 C 
ATOM     15  O   UNL     1       1.213  -0.114 -22.369  0.00  0.00    -0.297 OA
ATOM     16  C   UNL     1       3.400   0.112 -22.020  0.00  0.00    +0.078 C 
ATOM     17  C   UNL     1       4.468   0.836 -21.978  0.00  0.00    +0.002 C 
ATOM     18  C   UNL     1       5.600   0.320 -21.666  0.00  0.00    +0.008 C 
ATOM     19  C   UNL     1       4.409   2.060 -22.245  0.00  0.00    +0.052 C 
ATOM     20  C   UNL     1       5.280   3.736 -22.439  0.00  0.00    +0.090 C 
ATOM     21  C   UNL     1       2.065   3.980 -23.071  0.00  0.00    +0.174 A 
ENDROOT
BRANCH   1  23
ATOM     22  C   UNL     1      -0.369   5.781 -22.862  0.00  0.00    +0.277 C 
ATOM     23  O   UNL     1       0.546   5.450 -23.654  0.00  0.00    -0.491 OA
ENDBRANCH   1  23
BRANCH  21  24
ATOM     24  O   UNL     1       1.088   2.729 -22.986  0.00  0.00    -0.452 OA
BRANCH  24  25
ATOM     25  C   UNL     1      -0.294   2.581 -22.837  0.00  0.00    +0.129 A 
ATOM     26  C   UNL     1      -0.705   2.582 -21.626  0.00  0.00    +0.046 A 
ATOM     27  C   UNL     1      -1.951   2.453 -21.377  0.00  0.00    +0.004 A 
ATOM     28  C   UNL     1      -2.784   2.323 -22.335  0.00  0.00    +0.000 A 
ATOM     29  C   UNL     1      -2.374   2.321 -23.547  0.00  0.00    +0.004 A 
ATOM     30  C   UNL     1      -1.128   2.450 -23.797  0.00  0.00    +0.046 A 
ENDBRANCH  24  25
ENDBRANCH  21  24
TORSDOF 3
ENDMDL
MODEL 5
REMARK VINA RESULT:    -6.958      3.788      6.441
REMARK INTER + INTRA:          -8.878
REMARK INTER:                  -8.103
REMARK INTRA:                  -0.775
REMARK UNBOUND:                -0.699
REMARK  Name = COc1ccc2c(c1Oc1ccccc1)[C@]13CCN(C)[C@H](C2)[C@@H]1[C@H](C)CC(=O)C3   ZINC000096316420
REMARK  6 active torsions:
REMARK  status: ('A' for Active; 'I' for Inactive)
REMARK    1  A    between atoms: C_1  and  O_2
REMARK    2  A    between atoms: O_2  and  C_3
REMARK    3  A    between atoms: C_8  and  O_9
REMARK    4  A    between atoms: O_9  and  C_10
REMARK    5  A    between atoms: N_19  and  C_20
REMARK    6  A    between atoms: C_24  and  C_25
REMARK                            x       y       z     vdW  Elec       q    Type
REMARK                         _______ _______ _______ _____ _____    ______ ____
ROOT
ATOM      1  C   UNL     1       3.441   5.892 -22.802  0.00  0.00    +0.162 A 
ATOM      2  C   UNL     1       2.293   6.198 -23.224  0.00  0.00    +0.050 A 
ATOM      3  C   UNL     1       1.476   5.272 -23.482  0.00  0.00    +0.008 A 
ATOM      4  C   UNL     1       1.889   3.882 -23.282  0.00  0.00    -0.035 A 
ATOM      5  C   UNL     1       2.866   3.706 -22.926  0.00  0.00    +0.009 A 
ATOM      6  C   UNL     1       3.328   2.898 -22.731  0.00  0.00    +0.019 C 
ATOM      7  C   UNL     1       2.684   4.421 -23.018  0.00  0.00    +0.063 C 
ATOM      8  C   UNL     1       1.311   4.539 -23.514  0.00  0.00    +0.132 C 
ATOM      9  N   UNL     1       0.687   3.571 -23.701  0.00  0.00    +0.236 N 
ATOM     10  H   UNL     1       0.417   2.590 -23.762  0.00  0.00    +0.203 HD
ATOM     11  C   UNL     1       1.271   2.129 -23.439  0.00  0.00    +0.073 C 
ATOM     12  C   UNL     1      -0.342   4.306 -24.097  0.00  0.00    +0.190 C 
ATOM     13  C   UNL     1       4.488   2.682 -22.307  0.00  0.00    +0.086 C 
ATOM     14  C   UNL     1       4.882   1.465 -22.121  0.00  0.00    +0.134 C 
ATOM     15  O   UNL     1       6.062   1.235 -21.690  0.00  0.00    -0.297 OA
ATOM     16  C   UNL     1       4.091   0.450 -22.366  0.00  0.00    +0.078 C 
ATOM     17  C   UNL     1       2.891   0.636 -22.803  0.00  0.00    +0.002 C 
ATOM     18  C   UNL     1       2.118  -0.358 -23.043  0.00  0.00    +0.008 C 
ATOM     19  C   UNL     1       2.467   1.800 -22.998  0.00  0.00    +0.052 C 
ATOM     20  C   UNL     1       1.066   2.960 -23.543  0.00  0.00    +0.090 C 
ATOM     21  C   UNL     1       3.739   4.650 -22.649  0.00  0.00    +0.174 A 
ENDROOT
BRANCH   1  23
ATOM     22  C   UNL     1       4.456   7.697 -21.693  0.00  0.00    +0.277 C 
ATOM     23  O   UNL     1       4.475   6.707 -22.462  0.00  0.00    -0.491 OA
ENDBRANCH   1  23
BRANCH  21  24
ATOM     24  O   UNL     1       5.065   3.932 -22.147  0.00  0.00    -0.452 OA
BRANCH  24  25
ATOM     25  C   UNL     1       6.402   4.327 -22.030  0.00  0.00    +0.129 A 
ATOM     26  C   UNL     1       7.036   4.404 -23.137  0.00  0.00    +0.046 A 
ATOM     27  C   UNL     1       8.264   4.756 -23.143  0.00  0.00    +0.004 A 
ATOM     28  C   UNL     1       8.856   5.030 -22.047  0.00  0.00    +0.000 A 
ATOM     29  C   UNL     1       8.222   4.953 -20.938  0.00  0.00    +0.004 A 
ATOM     30  C   UNL     1       6.994   4.601 -20.930  0.00  0.00    +0.046 A 
ENDBRANCH  24  25
ENDBRANCH  21  24
TORSDOF 3
ENDMDL
