MODEL 1
REMARK VINA RESULT:   -10.238      0.000      0.000
REMARK INTER + INTRA:         -12.265
REMARK INTER:                 -12.071
REMARK INTRA:                  -0.194
REMARK UNBOUND:                -0.232
REMARK  Name = ZINC000000338403
REMARK  6 active torsions:
REMARK  status: ('A' for Active; 'I' for Inactive)
REMARK    1  A    between atoms: C_1  and  O_2
REMARK    2  A    between atoms: O_2  and  C_3
REMARK    3  A    between atoms: C_8  and  O_9
REMARK    4  A    between atoms: O_9  and  C_10
REMARK    5  A    between atoms: C_15  and  O_16
REMARK    6  A    between atoms: C_17  and  O_18
REMARK                            x       y       z     vdW  Elec       q    Type
REMARK                         _______ _______ _______ _____ _____    ______ ____
ROOT
ATOM      1  C   UNL     1      -3.297   3.493 -23.276  0.00  0.00    +0.162 A 
ATOM      2  C   UNL     1      -2.577   3.716 -24.334  0.00  0.00    +0.053 A 
ATOM      3  C   UNL     1      -1.320   3.385 -24.347  0.00  0.00    -0.030 A 
ATOM      4  C   UNL     1      -0.783   2.831 -23.300  0.00  0.00    +0.008 A 
ATOM      5  C   UNL     1       0.475   2.500 -23.313  0.00  0.00    +0.100 C 
ATOM      6  C   UNL     1       1.011   1.947 -22.266  0.00  0.00    +0.095 C 
ATOM      7  C   UNL     1       2.268   1.616 -22.279  0.00  0.00    -0.030 A 
ATOM      8  C   UNL     1       2.805   1.062 -21.232  0.00  0.00    +0.053 A 
ATOM      9  C   UNL     1       4.062   0.731 -21.244  0.00  0.00    +0.158 A 
ATOM     10  C   UNL     1       4.782   0.954 -22.303  0.00  0.00    +0.159 A 
ATOM     11  C   UNL     1       4.246   1.508 -23.350  0.00  0.00    +0.058 A 
ATOM     12  C   UNL     1       2.989   1.838 -23.338  0.00  0.00    +0.004 A 
ATOM     13  C   UNL     1       2.451   2.392 -24.384  0.00  0.00    +0.169 C 
ATOM     14  N   UNL     1       1.195   2.723 -24.372  0.00  0.00    +0.244 N 
ATOM     15  H   UNL     1       0.507   3.150 -24.992  0.00  0.00    +0.204 HD
ATOM     16  C   UNL     1       0.658   3.276 -25.418  0.00  0.00    +0.137 C 
ATOM     17  C   UNL     1      -1.503   2.609 -22.241  0.00  0.00    +0.058 A 
ATOM     18  C   UNL     1      -0.600   3.608 -25.406  0.00  0.00    +0.086 C 
ATOM     19  C   UNL     1      -2.761   2.940 -22.229  0.00  0.00    +0.162 A 
ENDROOT
BRANCH   1  21
ATOM     20  C   UNL     1      -5.157   4.130 -24.373  0.00  0.00    +0.277 C 
ATOM     21  O   UNL     1      -4.554   3.824 -23.263  0.00  0.00    -0.491 OA
ENDBRANCH   1  21
BRANCH  10  22
ATOM     22  O   UNL     1       6.040   0.623 -22.316  0.00  0.00    -0.503 OA
ATOM     23  H   UNL     1       6.354  -0.002 -22.939  0.00  0.00    +0.292 HD
ENDBRANCH  10  22
BRANCH   9  24
ATOM     24  O   UNL     1       4.599   0.178 -20.198  0.00  0.00    -0.503 OA
ATOM     25  H   UNL     1       4.104  -0.429 -19.683  0.00  0.00    +0.292 HD
ENDBRANCH   9  24
BRANCH  19  26
ATOM     26  O   UNL     1      -3.481   2.717 -21.170  0.00  0.00    -0.491 OA
ATOM     27  C   UNL     1      -3.291   3.423 -20.094  0.00  0.00    +0.277 C 
ENDBRANCH  19  26
TORSDOF 4
ENDMDL
MODEL 2
REMARK VINA RESULT:    -9.469      1.321      6.707
REMARK INTER + INTRA:         -11.362
REMARK INTER:                 -11.253
REMARK INTRA:                  -0.109
REMARK UNBOUND:                -0.232
REMARK  Name = ZINC000000338403
REMARK  6 active torsions:
REMARK  status: ('A' for Active; 'I' for Inactive)
REMARK    1  A    between atoms: C_1  and  O_2
REMARK    2  A    between atoms: O_2  and  C_3
REMARK    3  A    between atoms: C_8  and  O_9
REMARK    4  A    between atoms: O_9  and  C_10
REMARK    5  A    between atoms: C_15  and  O_16
REMARK    6  A    between atoms: C_17  and  O_18
REMARK                            x       y       z     vdW  Elec       q    Type
REMARK                         _______ _______ _______ _____ _____    ______ ____
ROOT
ATOM      1  C   UNL     1       3.887   2.630 -23.007  0.00  0.00    +0.162 A 
ATOM      2  C   UNL     1       3.358   3.178 -24.059  0.00  0.00    +0.053 A 
ATOM      3  C   UNL     1       2.071   3.340 -24.131  0.00  0.00    -0.030 A 
ATOM      4  C   UNL     1       1.311   2.953 -23.149  0.00  0.00    +0.008 A 
ATOM      5  C   UNL     1       0.023   3.115 -23.221  0.00  0.00    +0.100 C 
ATOM      6  C   UNL     1      -0.736   2.728 -22.239  0.00  0.00    +0.095 C 
ATOM      7  C   UNL     1      -2.023   2.890 -22.311  0.00  0.00    -0.030 A 
ATOM      8  C   UNL     1      -2.783   2.503 -21.329  0.00  0.00    +0.053 A 
ATOM      9  C   UNL     1      -4.071   2.664 -21.400  0.00  0.00    +0.158 A 
ATOM     10  C   UNL     1      -4.600   3.213 -22.454  0.00  0.00    +0.159 A 
ATOM     11  C   UNL     1      -3.841   3.600 -23.436  0.00  0.00    +0.058 A 
ATOM     12  C   UNL     1      -2.553   3.438 -23.364  0.00  0.00    +0.004 A 
ATOM     13  C   UNL     1      -1.793   3.825 -24.346  0.00  0.00    +0.169 C 
ATOM     14  N   UNL     1      -0.506   3.663 -24.275  0.00  0.00    +0.244 N 
ATOM     15  H   UNL     1       0.324   3.847 -24.839  0.00  0.00    +0.204 HD
ATOM     16  C   UNL     1       0.253   4.050 -25.256  0.00  0.00    +0.137 C 
ATOM     17  C   UNL     1       1.840   2.405 -22.096  0.00  0.00    +0.058 A 
ATOM     18  C   UNL     1       1.542   3.888 -25.185  0.00  0.00    +0.086 C 
ATOM     19  C   UNL     1       3.128   2.243 -22.024  0.00  0.00    +0.162 A 
ENDROOT
BRANCH   1  21
ATOM     20  C   UNL     1       5.972   3.354 -23.456  0.00  0.00    +0.277 C 
ATOM     21  O   UNL     1       5.175   2.468 -22.935  0.00  0.00    -0.491 OA
ENDBRANCH   1  21
BRANCH  10  22
ATOM     22  O   UNL     1      -5.888   3.375 -22.525  0.00  0.00    -0.503 OA
ATOM     23  H   UNL     1      -6.244   4.096 -23.004  0.00  0.00    +0.292 HD
ENDBRANCH  10  22
BRANCH   9  24
ATOM     24  O   UNL     1      -4.831   2.278 -20.419  0.00  0.00    -0.503 OA
ATOM     25  H   UNL     1      -4.598   2.488 -19.536  0.00  0.00    +0.292 HD
ENDBRANCH   9  24
BRANCH  19  26
ATOM     26  O   UNL     1       3.657   1.694 -20.971  0.00  0.00    -0.491 OA
ATOM     27  C   UNL     1       3.729   0.399 -20.880  0.00  0.00    +0.277 C 
ENDBRANCH  19  26
TORSDOF 4
ENDMDL
MODEL 3
REMARK VINA RESULT:    -8.808      1.537      3.020
REMARK INTER + INTRA:         -10.585
REMARK INTER:                 -10.742
REMARK INTRA:                   0.157
REMARK UNBOUND:                -0.232
REMARK  Name = ZINC000000338403
REMARK  6 active torsions:
REMARK  status: ('A' for Active; 'I' for Inactive)
REMARK    1  A    between atoms: C_1  and  O_2
REMARK    2  A    between atoms: O_2  and  C_3
REMARK    3  A    between atoms: C_8  and  O_9
REMARK    4  A    between atoms: O_9  and  C_10
REMARK    5  A    between atoms: C_15  and  O_16
REMARK    6  A    between atoms: C_17  and  O_18
REMARK                            x       y       z     vdW  Elec       q    Type
REMARK                         _______ _______ _______ _____ _____    ______ ____
ROOT
ATOM      1  C   UNL     1      -3.184   3.211 -24.025  0.00  0.00    +0.162 A 
ATOM      2  C   UNL     1      -2.975   2.630 -22.882  0.00  0.00    +0.053 A 
ATOM      3  C   UNL     1      -1.760   2.377 -22.494  0.00  0.00    -0.030 A 
ATOM      4  C   UNL     1      -0.754   2.706 -23.249  0.00  0.00    +0.008 A 
ATOM      5  C   UNL     1       0.460   2.454 -22.860  0.00  0.00    +0.100 C 
ATOM      6  C   UNL     1       1.465   2.783 -23.616  0.00  0.00    +0.095 C 
ATOM      7  C   UNL     1       2.680   2.531 -23.227  0.00  0.00    -0.030 A 
ATOM      8  C   UNL     1       3.686   2.860 -23.982  0.00  0.00    +0.053 A 
ATOM      9  C   UNL     1       4.900   2.608 -23.595  0.00  0.00    +0.158 A 
ATOM     10  C   UNL     1       5.110   2.026 -22.451  0.00  0.00    +0.159 A 
ATOM     11  C   UNL     1       4.105   1.696 -21.696  0.00  0.00    +0.058 A 
ATOM     12  C   UNL     1       2.890   1.948 -22.084  0.00  0.00    +0.004 A 
ATOM     13  C   UNL     1       1.884   1.619 -21.329  0.00  0.00    +0.169 C 
ATOM     14  N   UNL     1       0.670   1.871 -21.717  0.00  0.00    +0.244 N 
ATOM     15  H   UNL     1      -0.285   1.749 -21.380  0.00  0.00    +0.204 HD
ATOM     16  C   UNL     1      -0.335   1.542 -20.962  0.00  0.00    +0.137 C 
ATOM     17  C   UNL     1      -0.963   3.289 -24.392  0.00  0.00    +0.058 A 
ATOM     18  C   UNL     1      -1.551   1.795 -21.350  0.00  0.00    +0.086 C 
ATOM     19  C   UNL     1      -2.179   3.541 -24.780  0.00  0.00    +0.162 A 
ENDROOT
BRANCH   1  21
ATOM     20  C   UNL     1      -5.307   3.783 -23.540  0.00  0.00    +0.277 C 
ATOM     21  O   UNL     1      -4.398   3.464 -24.413  0.00  0.00    -0.491 OA
ENDBRANCH   1  21
BRANCH  10  22
ATOM     22  O   UNL     1       6.325   1.773 -22.063  0.00  0.00    -0.503 OA
ATOM     23  H   UNL     1       7.013   2.380 -22.251  0.00  0.00    +0.292 HD
ENDBRANCH  10  22
BRANCH   9  24
ATOM     24  O   UNL     1       5.907   2.937 -24.350  0.00  0.00    -0.503 OA
ATOM     25  H   UNL     1       5.803   2.969 -25.280  0.00  0.00    +0.292 HD
ENDBRANCH   9  24
BRANCH  19  26
ATOM     26  O   UNL     1      -2.388   4.124 -25.924  0.00  0.00    -0.491 OA
ATOM     27  C   UNL     1      -2.866   3.441 -26.922  0.00  0.00    +0.277 C 
ENDBRANCH  19  26
TORSDOF 4
ENDMDL
MODEL 4
REMARK VINA RESULT:    -8.796      1.851      7.286
REMARK INTER + INTRA:         -10.570
REMARK INTER:                 -10.648
REMARK INTRA:                   0.078
REMARK UNBOUND:                -0.232
REMARK  Name = ZINC000000338403
REMARK  6 active torsions:
REMARK  status: ('A' for Active; 'I' for Inactive)
REMARK    1  A    between atoms: C_1  and  O_2
REMARK    2  A    between atoms: O_2  and  C_3
REMARK    3  A    between atoms: C_8  and  O_9
REMARK    4  A    between atoms: O_9  and  C_10
REMARK    5  A    between atoms: C_15  and  O_16
REMARK    6  A    between atoms: C_17  and  O_18
REMARK                            x       y       z     vdW  Elec       q    Type
REMARK                         _______ _______ _______ _____ _____    ______ ____
ROOT
ATOM      1  C   UNL     1       3.161   1.547 -21.942  0.00  0.00    +0.162 A 
ATOM      2  C   UNL     1       2.166   1.467 -21.110  0.00  0.00    +0.053 A 
ATOM      3  C   UNL     1       0.962   1.758 -21.505  0.00  0.00    -0.030 A 
ATOM      4  C   UNL     1       0.753   2.130 -22.733  0.00  0.00    +0.008 A 
ATOM      5  C   UNL     1      -0.450   2.422 -23.128  0.00  0.00    +0.100 C 
ATOM      6  C   UNL     1      -0.658   2.794 -24.356  0.00  0.00    +0.095 C 
ATOM      7  C   UNL     1      -1.862   3.085 -24.751  0.00  0.00    -0.030 A 
ATOM      8  C   UNL     1      -2.071   3.457 -25.979  0.00  0.00    +0.053 A 
ATOM      9  C   UNL     1      -3.274   3.749 -26.375  0.00  0.00    +0.158 A 
ATOM     10  C   UNL     1      -4.269   3.668 -25.542  0.00  0.00    +0.159 A 
ATOM     11  C   UNL     1      -4.061   3.297 -24.314  0.00  0.00    +0.058 A 
ATOM     12  C   UNL     1      -2.858   3.005 -23.919  0.00  0.00    +0.004 A 
ATOM     13  C   UNL     1      -2.648   2.633 -22.691  0.00  0.00    +0.169 C 
ATOM     14  N   UNL     1      -1.445   2.341 -22.295  0.00  0.00    +0.244 N 
ATOM     15  H   UNL     1      -0.969   2.034 -21.447  0.00  0.00    +0.204 HD
ATOM     16  C   UNL     1      -1.237   1.970 -21.068  0.00  0.00    +0.137 C 
ATOM     17  C   UNL     1       1.748   2.211 -23.566  0.00  0.00    +0.058 A 
ATOM     18  C   UNL     1      -0.033   1.678 -20.672  0.00  0.00    +0.086 C 
ATOM     19  C   UNL     1       2.953   1.919 -23.170  0.00  0.00    +0.162 A 
ENDROOT
BRANCH   1  21
ATOM     20  C   UNL     1       4.548   0.340 -20.642  0.00  0.00    +0.277 C 
ATOM     21  O   UNL     1       4.364   1.255 -21.547  0.00  0.00    -0.491 OA
ENDBRANCH   1  21
BRANCH  10  22
ATOM     22  O   UNL     1      -5.473   3.960 -25.938  0.00  0.00    -0.503 OA
ATOM     23  H   UNL     1      -6.046   4.445 -25.378  0.00  0.00    +0.292 HD
ENDBRANCH  10  22
BRANCH   9  24
ATOM     24  O   UNL     1      -3.483   4.121 -27.603  0.00  0.00    -0.503 OA
ATOM     25  H   UNL     1      -3.990   3.580 -28.176  0.00  0.00    +0.292 HD
ENDBRANCH   9  24
BRANCH  19  26
ATOM     26  O   UNL     1       3.948   1.999 -24.003  0.00  0.00    -0.491 OA
ATOM     27  C   UNL     1       4.748   3.023 -23.961  0.00  0.00    +0.277 C 
ENDBRANCH  19  26
TORSDOF 4
ENDMDL
MODEL 5
REMARK VINA RESULT:    -8.434      1.815      7.324
REMARK INTER + INTRA:         -10.145
REMARK INTER:                 -10.167
REMARK INTRA:                   0.022
REMARK UNBOUND:                -0.232
REMARK  Name = ZINC000000338403
REMARK  6 active torsions:
REMARK  status: ('A' for Active; 'I' for Inactive)
REMARK    1  A    between atoms: C_1  and  O_2
REMARK    2  A    between atoms: O_2  and  C_3
REMARK    3  A    between atoms: C_8  and  O_9
REMARK    4  A    between atoms: O_9  and  C_10
REMARK    5  A    between atoms: C_15  and  O_16
REMARK    6  A    between atoms: C_17  and  O_18
REMARK                            x       y       z     vdW  Elec       q    Type
REMARK                         _______ _______ _______ _____ _____    ______ ____
ROOT
ATOM      1  C   UNL     1       3.522   2.305 -22.013  0.00  0.00    +0.162 A 
ATOM      2  C   UNL     1       2.693   1.648 -21.259  0.00  0.00    +0.053 A 
ATOM      3  C   UNL     1       1.411   1.799 -21.417  0.00  0.00    -0.030 A 
ATOM      4  C   UNL     1       0.959   2.606 -22.331  0.00  0.00    +0.008 A 
ATOM      5  C   UNL     1      -0.322   2.757 -22.489  0.00  0.00    +0.100 C 
ATOM      6  C   UNL     1      -0.773   3.564 -23.403  0.00  0.00    +0.095 C 
ATOM      7  C   UNL     1      -2.054   3.715 -23.561  0.00  0.00    -0.030 A 
ATOM      8  C   UNL     1      -2.507   4.522 -24.475  0.00  0.00    +0.053 A 
ATOM      9  C   UNL     1      -3.787   4.673 -24.633  0.00  0.00    +0.158 A 
ATOM     10  C   UNL     1      -4.617   4.016 -23.879  0.00  0.00    +0.159 A 
ATOM     11  C   UNL     1      -4.167   3.209 -22.965  0.00  0.00    +0.058 A 
ATOM     12  C   UNL     1      -2.885   3.058 -22.807  0.00  0.00    +0.004 A 
ATOM     13  C   UNL     1      -2.433   2.251 -21.894  0.00  0.00    +0.169 C 
ATOM     14  N   UNL     1      -1.152   2.100 -21.735  0.00  0.00    +0.244 N 
ATOM     15  H   UNL     1      -0.508   1.574 -21.144  0.00  0.00    +0.204 HD
ATOM     16  C   UNL     1      -0.701   1.293 -20.822  0.00  0.00    +0.137 C 
ATOM     17  C   UNL     1       1.789   3.263 -23.086  0.00  0.00    +0.058 A 
ATOM     18  C   UNL     1       0.581   1.142 -20.663  0.00  0.00    +0.086 C 
ATOM     19  C   UNL     1       3.071   3.112 -22.927  0.00  0.00    +0.162 A 
ENDROOT
BRANCH   1  21
ATOM     20  C   UNL     1       5.360   1.007 -22.110  0.00  0.00    +0.277 C 
ATOM     21  O   UNL     1       4.804   2.154 -21.855  0.00  0.00    -0.491 OA
ENDBRANCH   1  21
BRANCH  10  22
ATOM     22  O   UNL     1      -5.900   4.167 -24.038  0.00  0.00    -0.503 OA
ATOM     23  H   UNL     1      -6.463   4.201 -23.291  0.00  0.00    +0.292 HD
ENDBRANCH  10  22
BRANCH   9  24
ATOM     24  O   UNL     1      -4.239   5.481 -25.547  0.00  0.00    -0.503 OA
ATOM     25  H   UNL     1      -5.084   5.874 -25.448  0.00  0.00    +0.292 HD
ENDBRANCH   9  24
BRANCH  19  26
ATOM     26  O   UNL     1       3.902   3.769 -23.681  0.00  0.00    -0.491 OA
ATOM     27  C   UNL     1       4.440   4.871 -23.249  0.00  0.00    +0.277 C 
ENDBRANCH  19  26
TORSDOF 4
ENDMDL
MODEL 6
REMARK VINA RESULT:    -7.922      4.183      7.454
REMARK INTER + INTRA:          -9.543
REMARK INTER:                  -9.335
REMARK INTRA:                  -0.207
REMARK UNBOUND:                -0.232
REMARK  Name = ZINC000000338403
REMARK  6 active torsions:
REMARK  status: ('A' for Active; 'I' for Inactive)
REMARK    1  A    between atoms: C_1  and  O_2
REMARK    2  A    between atoms: O_2  and  C_3
REMARK    3  A    between atoms: C_8  and  O_9
REMARK    4  A    between atoms: O_9  and  C_10
REMARK    5  A    between atoms: C_15  and  O_16
REMARK    6  A    between atoms: C_17  and  O_18
REMARK                            x       y       z     vdW  Elec       q    Type
REMARK                         _______ _______ _______ _____ _____    ______ ____
ROOT
ATOM      1  C   UNL     1       6.125   6.785 -22.000  0.00  0.00    +0.162 A 
ATOM      2  C   UNL     1       6.311   5.581 -22.449  0.00  0.00    +0.053 A 
ATOM      3  C   UNL     1       5.299   4.879 -22.866  0.00  0.00    -0.030 A 
ATOM      4  C   UNL     1       4.101   5.382 -22.833  0.00  0.00    +0.008 A 
ATOM      5  C   UNL     1       3.089   4.681 -23.250  0.00  0.00    +0.100 C 
ATOM      6  C   UNL     1       1.891   5.185 -23.217  0.00  0.00    +0.095 C 
ATOM      7  C   UNL     1       0.880   4.483 -23.633  0.00  0.00    -0.030 A 
ATOM      8  C   UNL     1      -0.319   4.987 -23.601  0.00  0.00    +0.053 A 
ATOM      9  C   UNL     1      -1.331   4.286 -24.017  0.00  0.00    +0.158 A 
ATOM     10  C   UNL     1      -1.145   3.081 -24.467  0.00  0.00    +0.159 A 
ATOM     11  C   UNL     1       0.053   2.576 -24.500  0.00  0.00    +0.058 A 
ATOM     12  C   UNL     1       1.065   3.278 -24.084  0.00  0.00    +0.004 A 
ATOM     13  C   UNL     1       2.263   2.774 -24.116  0.00  0.00    +0.169 C 
ATOM     14  N   UNL     1       3.275   3.475 -23.700  0.00  0.00    +0.244 N 
ATOM     15  H   UNL     1       4.285   3.380 -23.598  0.00  0.00    +0.204 HD
ATOM     16  C   UNL     1       4.472   2.972 -23.733  0.00  0.00    +0.137 C 
ATOM     17  C   UNL     1       3.915   6.588 -22.383  0.00  0.00    +0.058 A 
ATOM     18  C   UNL     1       5.485   3.673 -23.316  0.00  0.00    +0.086 C 
ATOM     19  C   UNL     1       4.928   7.290 -21.966  0.00  0.00    +0.162 A 
ENDROOT
BRANCH   1  21
ATOM     20  C   UNL     1       7.816   7.096 -20.545  0.00  0.00    +0.277 C 
ATOM     21  O   UNL     1       7.137   7.487 -21.583  0.00  0.00    -0.491 OA
ENDBRANCH   1  21
BRANCH  10  22
ATOM     22  O   UNL     1      -2.157   2.379 -24.884  0.00  0.00    -0.503 OA
ATOM     23  H   UNL     1      -2.309   2.275 -25.802  0.00  0.00    +0.292 HD
ENDBRANCH  10  22
BRANCH   9  24
ATOM     24  O   UNL     1      -2.529   4.790 -23.984  0.00  0.00    -0.503 OA
ATOM     25  H   UNL     1      -2.647   5.706 -23.829  0.00  0.00    +0.292 HD
ENDBRANCH   9  24
BRANCH  19  26
ATOM     26  O   UNL     1       4.742   8.495 -21.516  0.00  0.00    -0.491 OA
ATOM     27  C   UNL     1       4.214   8.676 -20.342  0.00  0.00    +0.277 C 
ENDBRANCH  19  26
TORSDOF 4
ENDMDL
MODEL 7
REMARK VINA RESULT:    -7.554      2.652      4.244
REMARK INTER + INTRA:          -9.110
REMARK INTER:                  -8.910
REMARK INTRA:                  -0.201
REMARK UNBOUND:                -0.232
REMARK  Name = ZINC000000338403
REMARK  6 active torsions:
REMARK  status: ('A' for Active; 'I' for Inactive)
REMARK    1  A    between atoms: C_1  and  O_2
REMARK    2  A    between atoms: O_2  and  C_3
REMARK    3  A    between atoms: C_8  and  O_9
REMARK    4  A    between atoms: O_9  and  C_10
REMARK    5  A    between atoms: C_15  and  O_16
REMARK    6  A    between atoms: C_17  and  O_18
REMARK                            x       y       z     vdW  Elec       q    Type
REMARK                         _______ _______ _______ _____ _____    ______ ____
ROOT
ATOM      1  C   UNL     1      -0.906   2.406 -22.625  0.00  0.00    +0.162 A 
ATOM      2  C   UNL     1      -0.262   1.702 -21.743  0.00  0.00    +0.053 A 
ATOM      3  C   UNL     1       1.024   1.843 -21.612  0.00  0.00    -0.030 A 
ATOM      4  C   UNL     1       1.666   2.687 -22.364  0.00  0.00    +0.008 A 
ATOM      5  C   UNL     1       2.951   2.828 -22.233  0.00  0.00    +0.100 C 
ATOM      6  C   UNL     1       3.592   3.673 -22.986  0.00  0.00    +0.095 C 
ATOM      7  C   UNL     1       4.877   3.813 -22.855  0.00  0.00    -0.030 A 
ATOM      8  C   UNL     1       5.519   4.658 -23.607  0.00  0.00    +0.053 A 
ATOM      9  C   UNL     1       6.804   4.799 -23.477  0.00  0.00    +0.158 A 
ATOM     10  C   UNL     1       7.449   4.095 -22.594  0.00  0.00    +0.159 A 
ATOM     11  C   UNL     1       6.809   3.250 -21.842  0.00  0.00    +0.058 A 
ATOM     12  C   UNL     1       5.523   3.110 -21.973  0.00  0.00    +0.004 A 
ATOM     13  C   UNL     1       4.881   2.265 -21.221  0.00  0.00    +0.169 C 
ATOM     14  N   UNL     1       3.596   2.124 -21.351  0.00  0.00    +0.244 N 
ATOM     15  H   UNL     1       2.838   1.579 -20.941  0.00  0.00    +0.204 HD
ATOM     16  C   UNL     1       2.955   1.280 -20.599  0.00  0.00    +0.137 C 
ATOM     17  C   UNL     1       1.021   3.391 -23.247  0.00  0.00    +0.058 A 
ATOM     18  C   UNL     1       1.669   1.139 -20.730  0.00  0.00    +0.086 C 
ATOM     19  C   UNL     1      -0.266   3.250 -23.377  0.00  0.00    +0.162 A 
ENDROOT
BRANCH   1  21
ATOM     20  C   UNL     1      -2.977   2.497 -21.746  0.00  0.00    +0.277 C 
ATOM     21  O   UNL     1      -2.192   2.265 -22.756  0.00  0.00    -0.491 OA
ENDBRANCH   1  21
BRANCH  10  22
ATOM     22  O   UNL     1       8.736   4.236 -22.463  0.00  0.00    -0.503 OA
ATOM     23  H   UNL     1       9.181   4.920 -22.922  0.00  0.00    +0.292 HD
ENDBRANCH  10  22
BRANCH   9  24
ATOM     24  O   UNL     1       7.446   5.644 -24.228  0.00  0.00    -0.503 OA
ATOM     25  H   UNL     1       8.368   5.766 -24.114  0.00  0.00    +0.292 HD
ENDBRANCH   9  24
BRANCH  19  26
ATOM     26  O   UNL     1      -0.910   3.954 -24.260  0.00  0.00    -0.491 OA
ATOM     27  C   UNL     1      -0.765   3.699 -25.526  0.00  0.00    +0.277 C 
ENDBRANCH  19  26
TORSDOF 4
ENDMDL
MODEL 8
REMARK VINA RESULT:    -7.321      5.240      6.041
REMARK INTER + INTRA:          -8.836
REMARK INTER:                  -8.911
REMARK INTRA:                   0.075
REMARK UNBOUND:                -0.232
REMARK  Name = ZINC000000338403
REMARK  6 active torsions:
REMARK  status: ('A' for Active; 'I' for Inactive)
REMARK    1  A    between atoms: C_1  and  O_2
REMARK    2  A    between atoms: O_2  and  C_3
REMARK    3  A    between atoms: C_8  and  O_9
REMARK    4  A    between atoms: O_9  and  C_10
REMARK    5  A    between atoms: C_15  and  O_16
REMARK    6  A    between atoms: C_17  and  O_18
REMARK                            x       y       z     vdW  Elec       q    Type
REMARK                         _______ _______ _______ _____ _____    ______ ____
ROOT
ATOM      1  C   UNL     1       0.928   3.519 -24.014  0.00  0.00    +0.162 A 
ATOM      2  C   UNL     1       2.106   2.972 -24.036  0.00  0.00    +0.053 A 
ATOM      3  C   UNL     1       3.138   3.632 -23.601  0.00  0.00    -0.030 A 
ATOM      4  C   UNL     1       2.992   4.841 -23.144  0.00  0.00    +0.008 A 
ATOM      5  C   UNL     1       4.023   5.501 -22.710  0.00  0.00    +0.100 C 
ATOM      6  C   UNL     1       3.875   6.710 -22.253  0.00  0.00    +0.095 C 
ATOM      7  C   UNL     1       4.907   7.370 -21.819  0.00  0.00    -0.030 A 
ATOM      8  C   UNL     1       4.760   8.579 -21.362  0.00  0.00    +0.053 A 
ATOM      9  C   UNL     1       5.791   9.239 -20.927  0.00  0.00    +0.158 A 
ATOM     10  C   UNL     1       6.970   8.692 -20.949  0.00  0.00    +0.159 A 
ATOM     11  C   UNL     1       7.118   7.484 -21.406  0.00  0.00    +0.058 A 
ATOM     12  C   UNL     1       6.087   6.824 -21.840  0.00  0.00    +0.004 A 
ATOM     13  C   UNL     1       6.233   5.615 -22.297  0.00  0.00    +0.169 C 
ATOM     14  N   UNL     1       5.202   4.954 -22.732  0.00  0.00    +0.244 N 
ATOM     15  H   UNL     1       4.988   4.041 -23.132  0.00  0.00    +0.204 HD
ATOM     16  C   UNL     1       5.350   3.747 -23.189  0.00  0.00    +0.137 C 
ATOM     17  C   UNL     1       1.813   5.388 -23.122  0.00  0.00    +0.058 A 
ATOM     18  C   UNL     1       4.317   3.085 -23.624  0.00  0.00    +0.086 C 
ATOM     19  C   UNL     1       0.780   4.727 -23.557  0.00  0.00    +0.162 A 
ENDROOT
BRANCH   1  21
ATOM     20  C   UNL     1      -0.782   2.103 -23.636  0.00  0.00    +0.277 C 
ATOM     21  O   UNL     1      -0.104   2.858 -24.448  0.00  0.00    -0.491 OA
ENDBRANCH   1  21
BRANCH  10  22
ATOM     22  O   UNL     1       8.003   9.354 -20.514  0.00  0.00    -0.503 OA
ATOM     23  H   UNL     1       8.506   9.877 -21.105  0.00  0.00    +0.292 HD
ENDBRANCH  10  22
BRANCH   9  24
ATOM     24  O   UNL     1       5.645  10.448 -20.470  0.00  0.00    -0.503 OA
ATOM     25  H   UNL     1       6.384  10.914 -20.133  0.00  0.00    +0.292 HD
ENDBRANCH   9  24
BRANCH  19  26
ATOM     26  O   UNL     1      -0.399   5.274 -23.535  0.00  0.00    -0.491 OA
ATOM     27  C   UNL     1      -1.070   5.327 -22.422  0.00  0.00    +0.277 C 
ENDBRANCH  19  26
TORSDOF 4
ENDMDL
