MODEL 1
REMARK VINA RESULT:    -9.065      0.000      0.000
REMARK INTER + INTRA:          -8.215
REMARK INTER:                 -11.463
REMARK INTRA:                   3.249
REMARK UNBOUND:                 4.030
REMARK  Name = ZINC000000199427
REMARK  11 active torsions:
REMARK  status: ('A' for Active; 'I' for Inactive)
REMARK    1  A    between atoms: C_1  and  O_2
REMARK    2  A    between atoms: O_2  and  C_3
REMARK    3  A    between atoms: C_12  and  C_13
REMARK    4  A    between atoms: C_12  and  O_19
REMARK    5  A    between atoms: C_13  and  C_14
REMARK    6  A    between atoms: C_14  and  C_15
REMARK    7  A    between atoms: C_15  and  C_16
REMARK    8  A    between atoms: C_15  and  C_17
REMARK    9  A    between atoms: C_15  and  O_18
REMARK   10  A    between atoms: O_19  and  C_20
REMARK   11  A    between atoms: C_21  and  O_22
REMARK                            x       y       z     vdW  Elec       q    Type
REMARK                         _______ _______ _______ _____ _____    ______ ____
ROOT
ATOM      1  C   UNL     1       3.425   2.319 -23.256  0.00  0.00    +0.137 A 
ATOM      2  C   UNL     1       2.243   2.777 -23.540  0.00  0.00    +0.019 A 
ATOM      3  C   UNL     1       1.232   2.468 -22.783  0.00  0.00    +0.086 A 
ATOM      4  C   UNL     1       0.046   2.925 -23.065  0.00  0.00    +0.137 C 
ATOM      5  C   UNL     1      -0.123   3.688 -24.103  0.00  0.00    +0.153 C 
ATOM      6  C   UNL     1       0.887   3.997 -24.859  0.00  0.00    +0.039 C 
ATOM      7  N   UNL     1       1.402   1.705 -21.746  0.00  0.00    -0.214 NA
ATOM      8  C   UNL     1       2.586   1.250 -21.465  0.00  0.00    +0.231 A 
ATOM      9  O   UNL     1       3.017   0.483 -20.505  0.00  0.00    -0.445 OA
ATOM     10  C   UNL     1       4.295   0.319 -20.670  0.00  0.00    +0.198 A 
ATOM     11  C   UNL     1       4.656   0.981 -21.728  0.00  0.00    +0.055 A 
ATOM     12  C   UNL     1       2.071   3.539 -24.575  0.00  0.00    +0.043 C 
ATOM     13  C   UNL     1       3.598   1.555 -22.218  0.00  0.00    +0.082 A 
ENDROOT
BRANCH   5  14
ATOM     14  O   UNL     1      -1.307   4.145 -24.385  0.00  0.00    -0.389 OA
ATOM     15  H   UNL     1      -1.978   3.514 -24.081  0.00  0.00    +0.210 HD
ENDBRANCH   5  14
BRANCH   4  16
ATOM     16  O   UNL     1      -0.207   2.215 -21.971  0.00  0.00    -0.368 OA
ATOM     17  C   UNL     1      -0.903   1.117 -22.025  0.00  0.00    +0.195 C 
ENDBRANCH   4  16
BRANCH   1  19
ATOM     18  C   UNL     1       5.341   3.456 -23.581  0.00  0.00    +0.277 C 
ATOM     19  O   UNL     1       4.438   2.627 -24.012  0.00  0.00    -0.494 OA
ENDBRANCH   1  19
BRANCH   4  20
ATOM     20  C   UNL     1      -1.237   3.151 -22.986  0.00  0.00    +0.047 C 
BRANCH  20  21
ATOM     21  C   UNL     1      -1.703   3.925 -22.076  0.00  0.00    +0.037 C 
BRANCH  21  22
ATOM     22  C   UNL     1      -2.862   3.705 -21.541  0.00  0.00    +0.061 C 
ATOM     23  C   UNL     1      -2.986   3.723 -20.247  0.00  0.00    +0.041 C 
ATOM     24  C   UNL     1      -4.126   3.442 -21.658  0.00  0.00    +0.041 C 
BRANCH  22  25
ATOM     25  O   UNL     1      -3.384   3.558 -22.719  0.00  0.00    -0.389 OA
ATOM     26  H   UNL     1      -4.272   3.948 -22.730  0.00  0.00    +0.210 HD
ENDBRANCH  22  25
ENDBRANCH  21  22
ENDBRANCH  20  21
ENDBRANCH   4  20
TORSDOF 7
ENDMDL
MODEL 2
REMARK VINA RESULT:    -8.793      1.792      6.400
REMARK INTER + INTRA:          -7.847
REMARK INTER:                 -11.178
REMARK INTRA:                   3.331
REMARK UNBOUND:                 4.030
REMARK  Name = ZINC000000199427
REMARK  11 active torsions:
REMARK  status: ('A' for Active; 'I' for Inactive)
REMARK    1  A    between atoms: C_1  and  O_2
REMARK    2  A    between atoms: O_2  and  C_3
REMARK    3  A    between atoms: C_12  and  C_13
REMARK    4  A    between atoms: C_12  and  O_19
REMARK    5  A    between atoms: C_13  and  C_14
REMARK    6  A    between atoms: C_14  and  C_15
REMARK    7  A    between atoms: C_15  and  C_16
REMARK    8  A    between atoms: C_15  and  C_17
REMARK    9  A    between atoms: C_15  and  O_18
REMARK   10  A    between atoms: O_19  and  C_20
REMARK   11  A    between atoms: C_21  and  O_22
REMARK                            x       y       z     vdW  Elec       q    Type
REMARK                         _______ _______ _______ _____ _____    ______ ____
ROOT
ATOM      1  C   UNL     1      -2.435   2.652 -22.552  0.00  0.00    +0.137 A 
ATOM      2  C   UNL     1      -1.167   2.402 -22.419  0.00  0.00    +0.019 A 
ATOM      3  C   UNL     1      -0.332   2.802 -23.331  0.00  0.00    +0.086 A 
ATOM      4  C   UNL     1       0.940   2.553 -23.201  0.00  0.00    +0.137 C 
ATOM      5  C   UNL     1       1.369   1.905 -22.160  0.00  0.00    +0.153 C 
ATOM      6  C   UNL     1       0.534   1.506 -21.248  0.00  0.00    +0.039 C 
ATOM      7  N   UNL     1      -0.761   3.449 -24.372  0.00  0.00    -0.214 NA
ATOM      8  C   UNL     1      -2.030   3.697 -24.501  0.00  0.00    +0.231 A 
ATOM      9  O   UNL     1      -2.705   4.313 -25.427  0.00  0.00    -0.445 OA
ATOM     10  C   UNL     1      -3.959   4.294 -25.087  0.00  0.00    +0.198 A 
ATOM     11  C   UNL     1      -4.061   3.668 -23.954  0.00  0.00    +0.055 A 
ATOM     12  C   UNL     1      -0.736   1.756 -21.381  0.00  0.00    +0.043 C 
ATOM     13  C   UNL     1      -2.868   3.300 -23.593  0.00  0.00    +0.082 A 
ENDROOT
BRANCH   5  14
ATOM     14  O   UNL     1       2.638   1.656 -22.029  0.00  0.00    -0.389 OA
ATOM     15  H   UNL     1       3.022   2.266 -21.380  0.00  0.00    +0.210 HD
ENDBRANCH   5  14
BRANCH   4  16
ATOM     16  O   UNL     1       0.924   3.208 -24.357  0.00  0.00    -0.368 OA
ATOM     17  C   UNL     1       1.234   2.615 -25.473  0.00  0.00    +0.195 C 
ENDBRANCH   4  16
BRANCH   1  19
ATOM     18  C   UNL     1      -3.670   3.077 -20.718  0.00  0.00    +0.277 C 
ATOM     19  O   UNL     1      -3.273   2.253 -21.640  0.00  0.00    -0.494 OA
ENDBRANCH   1  19
BRANCH   4  20
ATOM     20  C   UNL     1       2.220   2.519 -23.454  0.00  0.00    +0.047 C 
BRANCH  20  21
ATOM     21  C   UNL     1       2.860   3.604 -23.694  0.00  0.00    +0.037 C 
BRANCH  21  22
ATOM     22  C   UNL     1       4.144   3.670 -23.539  0.00  0.00    +0.061 C 
ATOM     23  C   UNL     1       4.672   4.716 -22.976  0.00  0.00    +0.041 C 
ATOM     24  C   UNL     1       5.325   3.151 -23.681  0.00  0.00    +0.041 C 
BRANCH  22  25
ATOM     25  O   UNL     1       4.276   2.506 -24.097  0.00  0.00    -0.389 OA
ATOM     26  H   UNL     1       3.609   1.899 -23.741  0.00  0.00    +0.210 HD
ENDBRANCH  22  25
ENDBRANCH  21  22
ENDBRANCH  20  21
ENDBRANCH   4  20
TORSDOF 7
ENDMDL
MODEL 3
REMARK VINA RESULT:    -8.776      1.826      6.020
REMARK INTER + INTRA:          -7.824
REMARK INTER:                 -10.966
REMARK INTRA:                   3.142
REMARK UNBOUND:                 4.030
REMARK  Name = ZINC000000199427
REMARK  11 active torsions:
REMARK  status: ('A' for Active; 'I' for Inactive)
REMARK    1  A    between atoms: C_1  and  O_2
REMARK    2  A    between atoms: O_2  and  C_3
REMARK    3  A    between atoms: C_12  and  C_13
REMARK    4  A    between atoms: C_12  and  O_19
REMARK    5  A    between atoms: C_13  and  C_14
REMARK    6  A    between atoms: C_14  and  C_15
REMARK    7  A    between atoms: C_15  and  C_16
REMARK    8  A    between atoms: C_15  and  C_17
REMARK    9  A    between atoms: C_15  and  O_18
REMARK   10  A    between atoms: O_19  and  C_20
REMARK   11  A    between atoms: C_21  and  O_22
REMARK                            x       y       z     vdW  Elec       q    Type
REMARK                         _______ _______ _______ _____ _____    ______ ____
ROOT
ATOM      1  C   UNL     1      -3.307   3.645 -24.130  0.00  0.00    +0.137 A 
ATOM      2  C   UNL     1      -2.038   3.422 -24.298  0.00  0.00    +0.019 A 
ATOM      3  C   UNL     1      -1.344   2.893 -23.335  0.00  0.00    +0.086 A 
ATOM      4  C   UNL     1      -0.072   2.669 -23.499  0.00  0.00    +0.137 C 
ATOM      5  C   UNL     1       0.498   2.974 -24.626  0.00  0.00    +0.153 C 
ATOM      6  C   UNL     1      -0.196   3.503 -25.588  0.00  0.00    +0.039 C 
ATOM      7  N   UNL     1      -1.914   2.589 -22.209  0.00  0.00    -0.214 NA
ATOM      8  C   UNL     1      -3.184   2.813 -22.046  0.00  0.00    +0.231 A 
ATOM      9  O   UNL     1      -3.980   2.605 -21.037  0.00  0.00    -0.445 OA
ATOM     10  C   UNL     1      -5.168   3.006 -21.378  0.00  0.00    +0.198 A 
ATOM     11  C   UNL     1      -5.109   3.461 -22.593  0.00  0.00    +0.055 A 
ATOM     12  C   UNL     1      -1.466   3.726 -25.421  0.00  0.00    +0.043 C 
ATOM     13  C   UNL     1      -3.882   3.341 -23.004  0.00  0.00    +0.082 A 
ENDROOT
BRANCH   5  14
ATOM     14  O   UNL     1       1.769   2.750 -24.791  0.00  0.00    -0.389 OA
ATOM     15  H   UNL     1       2.237   3.594 -24.878  0.00  0.00    +0.210 HD
ENDBRANCH   5  14
BRANCH   4  16
ATOM     16  O   UNL     1      -0.251   2.230 -22.258  0.00  0.00    -0.368 OA
ATOM     17  C   UNL     1      -0.174   0.964 -21.972  0.00  0.00    +0.195 C 
ENDBRANCH   4  16
BRANCH   1  19
ATOM     18  C   UNL     1      -4.708   3.415 -25.878  0.00  0.00    +0.277 C 
ATOM     19  O   UNL     1      -4.004   4.175 -25.093  0.00  0.00    -0.494 OA
ENDBRANCH   1  19
BRANCH   4  20
ATOM     20  C   UNL     1       1.155   2.296 -23.252  0.00  0.00    +0.047 C 
BRANCH  20  21
ATOM     21  C   UNL     1       1.849   2.904 -22.362  0.00  0.00    +0.037 C 
BRANCH  21  22
ATOM     22  C   UNL     1       3.088   2.591 -22.152  0.00  0.00    +0.061 C 
ATOM     23  C   UNL     1       3.384   1.411 -21.692  0.00  0.00    +0.041 C 
ATOM     24  C   UNL     1       4.348   2.899 -22.171  0.00  0.00    +0.041 C 
BRANCH  22  25
ATOM     25  O   UNL     1       3.459   3.765 -22.559  0.00  0.00    -0.389 OA
ATOM     26  H   UNL     1       3.916   4.228 -21.839  0.00  0.00    +0.210 HD
ENDBRANCH  22  25
ENDBRANCH  21  22
ENDBRANCH  20  21
ENDBRANCH   4  20
TORSDOF 7
ENDMDL
MODEL 4
REMARK VINA RESULT:    -8.594      1.786      3.348
REMARK INTER + INTRA:          -7.578
REMARK INTER:                 -11.326
REMARK INTRA:                   3.748
REMARK UNBOUND:                 4.030
REMARK  Name = ZINC000000199427
REMARK  11 active torsions:
REMARK  status: ('A' for Active; 'I' for Inactive)
REMARK    1  A    between atoms: C_1  and  O_2
REMARK    2  A    between atoms: O_2  and  C_3
REMARK    3  A    between atoms: C_12  and  C_13
REMARK    4  A    between atoms: C_12  and  O_19
REMARK    5  A    between atoms: C_13  and  C_14
REMARK    6  A    between atoms: C_14  and  C_15
REMARK    7  A    between atoms: C_15  and  C_16
REMARK    8  A    between atoms: C_15  and  C_17
REMARK    9  A    between atoms: C_15  and  O_18
REMARK   10  A    between atoms: O_19  and  C_20
REMARK   11  A    between atoms: C_21  and  O_22
REMARK                            x       y       z     vdW  Elec       q    Type
REMARK                         _______ _______ _______ _____ _____    ______ ____
ROOT
ATOM      1  C   UNL     1       2.326   1.899 -21.693  0.00  0.00    +0.137 A 
ATOM      2  C   UNL     1       1.061   2.029 -21.958  0.00  0.00    +0.019 A 
ATOM      3  C   UNL     1       0.670   2.918 -22.823  0.00  0.00    +0.086 A 
ATOM      4  C   UNL     1      -0.597   3.050 -23.090  0.00  0.00    +0.137 C 
ATOM      5  C   UNL     1      -1.467   2.294 -22.490  0.00  0.00    +0.153 C 
ATOM      6  C   UNL     1      -1.077   1.407 -21.626  0.00  0.00    +0.039 C 
ATOM      7  N   UNL     1       1.540   3.673 -23.421  0.00  0.00    -0.214 NA
ATOM      8  C   UNL     1       2.805   3.540 -23.154  0.00  0.00    +0.231 A 
ATOM      9  O   UNL     1       3.858   4.158 -23.605  0.00  0.00    -0.445 OA
ATOM     10  C   UNL     1       4.900   3.651 -23.018  0.00  0.00    +0.198 A 
ATOM     11  C   UNL     1       4.494   2.722 -22.206  0.00  0.00    +0.055 A 
ATOM     12  C   UNL     1       0.190   1.276 -21.361  0.00  0.00    +0.043 C 
ATOM     13  C   UNL     1       3.200   2.654 -22.291  0.00  0.00    +0.082 A 
ENDROOT
BRANCH   5  14
ATOM     14  O   UNL     1      -2.733   2.426 -22.757  0.00  0.00    -0.389 OA
ATOM     15  H   UNL     1      -3.169   2.896 -22.029  0.00  0.00    +0.210 HD
ENDBRANCH   5  14
BRANCH   4  16
ATOM     16  O   UNL     1      -0.070   3.976 -23.884  0.00  0.00    -0.368 OA
ATOM     17  C   UNL     1      -0.140   5.240 -23.587  0.00  0.00    +0.195 C 
ENDBRANCH   4  16
BRANCH   1  19
ATOM     18  C   UNL     1       3.782   0.302 -21.063  0.00  0.00    +0.277 C 
ATOM     19  O   UNL     1       2.719   1.011 -20.828  0.00  0.00    -0.494 OA
ENDBRANCH   1  19
BRANCH   4  20
ATOM     20  C   UNL     1      -1.703   3.492 -23.624  0.00  0.00    +0.047 C 
BRANCH  20  21
ATOM     21  C   UNL     1      -1.889   3.405 -24.890  0.00  0.00    +0.037 C 
BRANCH  21  22
ATOM     22  C   UNL     1      -2.976   3.850 -25.438  0.00  0.00    +0.061 C 
ATOM     23  C   UNL     1      -3.310   3.443 -26.627  0.00  0.00    +0.041 C 
ATOM     24  C   UNL     1      -4.038   4.593 -25.394  0.00  0.00    +0.041 C 
BRANCH  22  25
ATOM     25  O   UNL     1      -3.216   4.572 -24.387  0.00  0.00    -0.389 OA
ATOM     26  H   UNL     1      -2.585   4.343 -23.686  0.00  0.00    +0.210 HD
ENDBRANCH  22  25
ENDBRANCH  21  22
ENDBRANCH  20  21
ENDBRANCH   4  20
TORSDOF 7
ENDMDL
MODEL 5
REMARK VINA RESULT:    -8.334      1.990      6.696
REMARK INTER + INTRA:          -7.228
REMARK INTER:                 -10.560
REMARK INTRA:                   3.332
REMARK UNBOUND:                 4.030
REMARK  Name = ZINC000000199427
REMARK  11 active torsions:
REMARK  status: ('A' for Active; 'I' for Inactive)
REMARK    1  A    between atoms: C_1  and  O_2
REMARK    2  A    between atoms: O_2  and  C_3
REMARK    3  A    between atoms: C_12  and  C_13
REMARK    4  A    between atoms: C_12  and  O_19
REMARK    5  A    between atoms: C_13  and  C_14
REMARK    6  A    between atoms: C_14  and  C_15
REMARK    7  A    between atoms: C_15  and  C_16
REMARK    8  A    between atoms: C_15  and  C_17
REMARK    9  A    between atoms: C_15  and  O_18
REMARK   10  A    between atoms: O_19  and  C_20
REMARK   11  A    between atoms: C_21  and  O_22
REMARK                            x       y       z     vdW  Elec       q    Type
REMARK                         _______ _______ _______ _____ _____    ______ ____
ROOT
ATOM      1  C   UNL     1      -3.505   2.871 -22.619  0.00  0.00    +0.137 A 
ATOM      2  C   UNL     1      -2.251   2.619 -22.395  0.00  0.00    +0.019 A 
ATOM      3  C   UNL     1      -1.341   3.130 -23.170  0.00  0.00    +0.086 A 
ATOM      4  C   UNL     1      -0.083   2.880 -22.947  0.00  0.00    +0.137 C 
ATOM      5  C   UNL     1       0.259   2.120 -21.950  0.00  0.00    +0.153 C 
ATOM      6  C   UNL     1      -0.650   1.610 -21.175  0.00  0.00    +0.039 C 
ATOM      7  N   UNL     1      -1.683   3.889 -24.166  0.00  0.00    -0.214 NA
ATOM      8  C   UNL     1      -2.939   4.138 -24.388  0.00  0.00    +0.231 A 
ATOM      9  O   UNL     1      -3.536   4.851 -25.298  0.00  0.00    -0.445 OA
ATOM     10  C   UNL     1      -4.816   4.781 -25.085  0.00  0.00    +0.198 A 
ATOM     11  C   UNL     1      -5.012   4.027 -24.046  0.00  0.00    +0.055 A 
ATOM     12  C   UNL     1      -1.906   1.861 -21.400  0.00  0.00    +0.043 C 
ATOM     13  C   UNL     1      -3.851   3.630 -23.616  0.00  0.00    +0.082 A 
ENDROOT
BRANCH   5  14
ATOM     14  O   UNL     1       1.516   1.870 -21.728  0.00  0.00    -0.389 OA
ATOM     15  H   UNL     1       1.940   2.656 -21.351  0.00  0.00    +0.210 HD
ENDBRANCH   5  14
BRANCH   4  16
ATOM     16  O   UNL     1      -0.002   3.664 -24.017  0.00  0.00    -0.368 OA
ATOM     17  C   UNL     1       0.573   4.829 -23.958  0.00  0.00    +0.195 C 
ENDBRANCH   4  16
BRANCH   1  19
ATOM     18  C   UNL     1      -5.054   3.120 -21.004  0.00  0.00    +0.277 C 
ATOM     19  O   UNL     1      -4.417   2.361 -21.844  0.00  0.00    -0.494 OA
ENDBRANCH   1  19
BRANCH   4  20
ATOM     20  C   UNL     1       1.216   2.888 -23.078  0.00  0.00    +0.047 C 
BRANCH  20  21
ATOM     21  C   UNL     1       1.759   2.487 -24.169  0.00  0.00    +0.037 C 
BRANCH  21  22
ATOM     22  C   UNL     1       2.966   2.018 -24.182  0.00  0.00    +0.061 C 
ATOM     23  C   UNL     1       3.968   2.816 -23.963  0.00  0.00    +0.041 C 
ATOM     24  C   UNL     1       3.788   1.024 -24.320  0.00  0.00    +0.041 C 
BRANCH  22  25
ATOM     25  O   UNL     1       2.508   0.832 -24.440  0.00  0.00    -0.389 OA
ATOM     26  H   UNL     1       1.825   0.600 -23.791  0.00  0.00    +0.210 HD
ENDBRANCH  22  25
ENDBRANCH  21  22
ENDBRANCH  20  21
ENDBRANCH   4  20
TORSDOF 7
ENDMDL
MODEL 6
REMARK VINA RESULT:    -7.705      2.548      3.997
REMARK INTER + INTRA:          -6.377
REMARK INTER:                  -9.625
REMARK INTRA:                   3.248
REMARK UNBOUND:                 4.030
REMARK  Name = ZINC000000199427
REMARK  11 active torsions:
REMARK  status: ('A' for Active; 'I' for Inactive)
REMARK    1  A    between atoms: C_1  and  O_2
REMARK    2  A    between atoms: O_2  and  C_3
REMARK    3  A    between atoms: C_12  and  C_13
REMARK    4  A    between atoms: C_12  and  O_19
REMARK    5  A    between atoms: C_13  and  C_14
REMARK    6  A    between atoms: C_14  and  C_15
REMARK    7  A    between atoms: C_15  and  C_16
REMARK    8  A    between atoms: C_15  and  C_17
REMARK    9  A    between atoms: C_15  and  O_18
REMARK   10  A    between atoms: O_19  and  C_20
REMARK   11  A    between atoms: C_21  and  O_22
REMARK                            x       y       z     vdW  Elec       q    Type
REMARK                         _______ _______ _______ _____ _____    ______ ____
ROOT
ATOM      1  C   UNL     1       5.439   4.720 -22.935  0.00  0.00    +0.137 A 
ATOM      2  C   UNL     1       4.512   3.887 -23.302  0.00  0.00    +0.019 A 
ATOM      3  C   UNL     1       3.261   4.228 -23.202  0.00  0.00    +0.086 A 
ATOM      4  C   UNL     1       2.330   3.395 -23.569  0.00  0.00    +0.137 C 
ATOM      5  C   UNL     1       2.654   2.227 -24.035  0.00  0.00    +0.153 C 
ATOM      6  C   UNL     1       3.904   1.886 -24.135  0.00  0.00    +0.039 C 
ATOM      7  N   UNL     1       2.938   5.396 -22.736  0.00  0.00    -0.214 NA
ATOM      8  C   UNL     1       3.868   6.226 -22.370  0.00  0.00    +0.231 A 
ATOM      9  O   UNL     1       3.813   7.432 -21.881  0.00  0.00    -0.445 OA
ATOM     10  C   UNL     1       5.032   7.836 -21.679  0.00  0.00    +0.198 A 
ATOM     11  C   UNL     1       5.839   6.884 -22.042  0.00  0.00    +0.055 A 
ATOM     12  C   UNL     1       4.832   2.720 -23.767  0.00  0.00    +0.043 C 
ATOM     13  C   UNL     1       5.118   5.891 -22.468  0.00  0.00    +0.082 A 
ENDROOT
BRANCH   5  14
ATOM     14  O   UNL     1       1.725   1.395 -24.402  0.00  0.00    -0.389 OA
ATOM     15  H   UNL     1       2.032   0.486 -24.264  0.00  0.00    +0.210 HD
ENDBRANCH   5  14
BRANCH   4  16
ATOM     16  O   UNL     1       1.603   4.433 -23.169  0.00  0.00    -0.368 OA
ATOM     17  C   UNL     1       0.851   5.091 -24.002  0.00  0.00    +0.195 C 
ENDBRANCH   4  16
BRANCH   1  19
ATOM     18  C   UNL     1       7.353   4.025 -21.975  0.00  0.00    +0.277 C 
ATOM     19  O   UNL     1       6.691   4.381 -23.034  0.00  0.00    -0.494 OA
ENDBRANCH   1  19
BRANCH   4  20
ATOM     20  C   UNL     1       1.146   2.899 -23.808  0.00  0.00    +0.047 C 
BRANCH  20  21
ATOM     21  C   UNL     1       0.415   2.478 -22.841  0.00  0.00    +0.037 C 
BRANCH  21  22
ATOM     22  C   UNL     1      -0.875   2.576 -22.889  0.00  0.00    +0.061 C 
ATOM     23  C   UNL     1      -1.518   3.099 -21.888  0.00  0.00    +0.041 C 
ATOM     24  C   UNL     1      -1.998   2.392 -23.513  0.00  0.00    +0.041 C 
BRANCH  22  25
ATOM     25  O   UNL     1      -0.878   2.032 -24.067  0.00  0.00    -0.389 OA
ATOM     26  H   UNL     1      -0.923   2.725 -24.744  0.00  0.00    +0.210 HD
ENDBRANCH  22  25
ENDBRANCH  21  22
ENDBRANCH  20  21
ENDBRANCH   4  20
TORSDOF 7
ENDMDL
MODEL 7
REMARK VINA RESULT:    -7.462      1.673      2.000
REMARK INTER + INTRA:          -6.049
REMARK INTER:                  -9.622
REMARK INTRA:                   3.573
REMARK UNBOUND:                 4.030
REMARK  Name = ZINC000000199427
REMARK  11 active torsions:
REMARK  status: ('A' for Active; 'I' for Inactive)
REMARK    1  A    between atoms: C_1  and  O_2
REMARK    2  A    between atoms: O_2  and  C_3
REMARK    3  A    between atoms: C_12  and  C_13
REMARK    4  A    between atoms: C_12  and  O_19
REMARK    5  A    between atoms: C_13  and  C_14
REMARK    6  A    between atoms: C_14  and  C_15
REMARK    7  A    between atoms: C_15  and  C_16
REMARK    8  A    between atoms: C_15  and  C_17
REMARK    9  A    between atoms: C_15  and  O_18
REMARK   10  A    between atoms: O_19  and  C_20
REMARK   11  A    between atoms: C_21  and  O_22
REMARK                            x       y       z     vdW  Elec       q    Type
REMARK                         _______ _______ _______ _____ _____    ______ ____
ROOT
ATOM      1  C   UNL     1       3.514   3.266 -22.417  0.00  0.00    +0.137 A 
ATOM      2  C   UNL     1       2.427   3.828 -22.851  0.00  0.00    +0.019 A 
ATOM      3  C   UNL     1       1.321   3.147 -22.897  0.00  0.00    +0.086 A 
ATOM      4  C   UNL     1       0.230   3.708 -23.331  0.00  0.00    +0.137 C 
ATOM      5  C   UNL     1       0.250   4.948 -23.718  0.00  0.00    +0.153 C 
ATOM      6  C   UNL     1       1.355   5.630 -23.672  0.00  0.00    +0.039 C 
ATOM      7  N   UNL     1       1.302   1.907 -22.510  0.00  0.00    -0.214 NA
ATOM      8  C   UNL     1       2.392   1.348 -22.077  0.00  0.00    +0.231 A 
ATOM      9  O   UNL     1       2.637   0.147 -21.640  0.00  0.00    -0.445 OA
ATOM     10  C   UNL     1       3.896   0.086 -21.324  0.00  0.00    +0.198 A 
ATOM     11  C   UNL     1       4.429   1.246 -21.564  0.00  0.00    +0.055 A 
ATOM     12  C   UNL     1       2.444   5.066 -23.237  0.00  0.00    +0.043 C 
ATOM     13  C   UNL     1       3.498   2.025 -22.029  0.00  0.00    +0.082 A 
ENDROOT
BRANCH   5  14
ATOM     14  O   UNL     1      -0.840   5.510 -24.152  0.00  0.00    -0.389 OA
ATOM     15  H   UNL     1      -0.820   6.456 -23.944  0.00  0.00    +0.210 HD
ENDBRANCH   5  14
BRANCH   4  16
ATOM     16  O   UNL     1      -0.206   2.485 -23.049  0.00  0.00    -0.368 OA
ATOM     17  C   UNL     1      -1.075   2.281 -22.102  0.00  0.00    +0.195 C 
ENDBRANCH   4  16
BRANCH   1  19
ATOM     18  C   UNL     1       5.515   3.797 -23.301  0.00  0.00    +0.277 C 
ATOM     19  O   UNL     1       4.622   3.946 -22.370  0.00  0.00    -0.494 OA
ENDBRANCH   1  19
BRANCH   4  20
ATOM     20  C   UNL     1      -1.019   3.869 -23.677  0.00  0.00    +0.047 C 
BRANCH  20  21
ATOM     21  C   UNL     1      -1.443   3.414 -24.799  0.00  0.00    +0.037 C 
BRANCH  21  22
ATOM     22  C   UNL     1      -2.711   3.299 -25.035  0.00  0.00    +0.061 C 
ATOM     23  C   UNL     1      -3.435   4.367 -25.194  0.00  0.00    +0.041 C 
ATOM     24  C   UNL     1      -3.761   2.560 -25.219  0.00  0.00    +0.041 C 
BRANCH  22  25
ATOM     25  O   UNL     1      -2.607   2.007 -24.990  0.00  0.00    -0.389 OA
ATOM     26  H   UNL     1      -2.798   1.698 -24.090  0.00  0.00    +0.210 HD
ENDBRANCH  22  25
ENDBRANCH  21  22
ENDBRANCH  20  21
ENDBRANCH   4  20
TORSDOF 7
ENDMDL
