MODEL 1
REMARK VINA RESULT:   -11.068      0.000      0.000
REMARK INTER + INTRA:         -11.715
REMARK INTER:                 -11.715
REMARK INTRA:                   0.000
REMARK UNBOUND:                 0.000
REMARK  Name = C[C@]12CC[C@@H]3c4cc(Br)c(O)c(Br)c4CC[C@H]3[C@H]1CC[C@@H]2O          ZINC000225364540
REMARK  3 active torsions:
REMARK  status: ('A' for Active; 'I' for Inactive)
REMARK    1  A    between atoms: C_1  and  C_2
REMARK    2  A    between atoms: C_10  and  O_11
REMARK    3  A    between atoms: C_21  and  O_22
REMARK                            x       y       z     vdW  Elec       q    Type
REMARK                         _______ _______ _______ _____ _____    ______ ____
ROOT
ATOM      1  C   UNL     1       2.750   2.352 -24.761  0.00  0.00    +0.014 C 
ATOM      2  C   UNL     1       2.024   2.108 -23.709  0.00  0.00    -0.003 C 
ATOM      3  C   UNL     1       1.375   2.683 -24.678  0.00  0.00    +0.010 C 
ATOM      4  C   UNL     1       0.112   2.961 -24.539  0.00  0.00    +0.009 C 
ATOM      5  C   UNL     1      -0.501   2.664 -23.432  0.00  0.00    +0.023 C 
ATOM      6  C   UNL     1      -1.763   2.942 -23.292  0.00  0.00    -0.039 A 
ATOM      7  C   UNL     1      -2.412   3.517 -24.261  0.00  0.00    +0.023 A 
ATOM      8  C   UNL     1      -3.675   3.795 -24.122  0.00  0.00    +0.061 A 
ATOM      9  C   UNL     1      -4.288   3.498 -23.015  0.00  0.00    +0.145 A 
ATOM     10  C   UNL     1      -3.638   2.923 -22.046  0.00  0.00    +0.064 A 
ATOM     11 BR   UNL     1      -4.251   2.626 -20.939  0.00  0.00    -0.046 Br
ATOM     12 BR   UNL     1      -4.324   4.370 -25.090  0.00  0.00    -0.046 Br
ATOM     13  C   UNL     1      -2.376   2.645 -22.185  0.00  0.00    -0.026 A 
ATOM     14  C   UNL     1      -1.726   2.070 -21.217  0.00  0.00    +0.037 C 
ATOM     15  C   UNL     1      -0.464   1.792 -21.356  0.00  0.00    +0.009 C 
ATOM     16  C   UNL     1       0.149   2.089 -22.463  0.00  0.00    +0.000 C 
ATOM     17  C   UNL     1       3.263   1.732 -23.596  0.00  0.00    +0.121 C 
ATOM     18  C   UNL     1       3.416   1.202 -22.419  0.00  0.00    +0.032 C 
ATOM     19  C   UNL     1       2.272   1.252 -21.805  0.00  0.00    +0.007 C 
ATOM     20  C   UNL     1       1.411   1.811 -22.602  0.00  0.00    +0.001 C 
ENDROOT
BRANCH   9  21
ATOM     21  O   UNL     1      -5.550   3.776 -22.875  0.00  0.00    -0.505 OA
ATOM     22  H   UNL     1      -5.986   4.304 -23.514  0.00  0.00    +0.292 HD
ENDBRANCH   9  21
BRANCH  17  23
ATOM     23  O   UNL     1       4.187   1.862 -24.501  0.00  0.00    -0.391 OA
ATOM     24  H   UNL     1       4.079   2.714 -24.953  0.00  0.00    +0.210 HD
ENDBRANCH  17  23
TORSDOF 2
ENDMDL
MODEL 2
REMARK VINA RESULT:   -11.066      2.216      6.516
REMARK INTER + INTRA:         -11.713
REMARK INTER:                 -11.713
REMARK INTRA:                   0.000
REMARK UNBOUND:                 0.000
REMARK  Name = C[C@]12CC[C@@H]3c4cc(Br)c(O)c(Br)c4CC[C@H]3[C@H]1CC[C@@H]2O          ZINC000225364540
REMARK  3 active torsions:
REMARK  status: ('A' for Active; 'I' for Inactive)
REMARK    1  A    between atoms: C_1  and  C_2
REMARK    2  A    between atoms: C_10  and  O_11
REMARK    3  A    between atoms: C_21  and  O_22
REMARK                            x       y       z     vdW  Elec       q    Type
REMARK                         _______ _______ _______ _____ _____    ______ ____
ROOT
ATOM      1  C   UNL     1      -4.855   2.860 -21.452  0.00  0.00    +0.014 C 
ATOM      2  C   UNL     1      -4.120   3.118 -22.494  0.00  0.00    -0.003 C 
ATOM      3  C   UNL     1      -3.462   2.608 -21.495  0.00  0.00    +0.010 C 
ATOM      4  C   UNL     1      -2.182   2.401 -21.599  0.00  0.00    +0.009 C 
ATOM      5  C   UNL     1      -1.561   2.704 -22.700  0.00  0.00    +0.023 C 
ATOM      6  C   UNL     1      -0.282   2.498 -22.804  0.00  0.00    -0.039 A 
ATOM      7  C   UNL     1       0.376   1.988 -21.806  0.00  0.00    +0.023 A 
ATOM      8  C   UNL     1       1.656   1.781 -21.909  0.00  0.00    +0.061 A 
ATOM      9  C   UNL     1       2.277   2.084 -23.011  0.00  0.00    +0.145 A 
ATOM     10  C   UNL     1       1.617   2.594 -24.009  0.00  0.00    +0.064 A 
ATOM     11 BR   UNL     1       2.238   2.897 -25.110  0.00  0.00    -0.046 Br
ATOM     12 BR   UNL     1       2.315   1.272 -20.912  0.00  0.00    -0.046 Br
ATOM     13  C   UNL     1       0.338   2.801 -23.906  0.00  0.00    -0.026 A 
ATOM     14  C   UNL     1      -0.321   3.311 -24.904  0.00  0.00    +0.037 C 
ATOM     15  C   UNL     1      -1.600   3.517 -24.800  0.00  0.00    +0.009 C 
ATOM     16  C   UNL     1      -2.221   3.214 -23.698  0.00  0.00    +0.000 C 
ATOM     17  C   UNL     1      -5.376   3.417 -22.644  0.00  0.00    +0.121 C 
ATOM     18  C   UNL     1      -5.532   3.906 -23.839  0.00  0.00    +0.032 C 
ATOM     19  C   UNL     1      -4.372   3.908 -24.426  0.00  0.00    +0.007 C 
ATOM     20  C   UNL     1      -3.500   3.421 -23.595  0.00  0.00    +0.001 C 
ENDROOT
BRANCH   9  21
ATOM     21  O   UNL     1       3.556   1.878 -23.115  0.00  0.00    -0.505 OA
ATOM     22  H   UNL     1       4.119   2.055 -22.387  0.00  0.00    +0.292 HD
ENDBRANCH   9  21
BRANCH  17  23
ATOM     23  O   UNL     1      -6.312   3.257 -21.756  0.00  0.00    -0.391 OA
ATOM     24  H   UNL     1      -6.196   3.905 -21.043  0.00  0.00    +0.210 HD
ENDBRANCH  17  23
TORSDOF 2
ENDMDL
MODEL 3
REMARK VINA RESULT:   -11.049      0.808      2.596
REMARK INTER + INTRA:         -11.695
REMARK INTER:                 -11.695
REMARK INTRA:                   0.000
REMARK UNBOUND:                 0.000
REMARK  Name = C[C@]12CC[C@@H]3c4cc(Br)c(O)c(Br)c4CC[C@H]3[C@H]1CC[C@@H]2O          ZINC000225364540
REMARK  3 active torsions:
REMARK  status: ('A' for Active; 'I' for Inactive)
REMARK    1  A    between atoms: C_1  and  C_2
REMARK    2  A    between atoms: C_10  and  O_11
REMARK    3  A    between atoms: C_21  and  O_22
REMARK                            x       y       z     vdW  Elec       q    Type
REMARK                         _______ _______ _______ _____ _____    ______ ____
ROOT
ATOM      1  C   UNL     1       2.363   1.150 -21.736  0.00  0.00    +0.014 C 
ATOM      2  C   UNL     1       1.786   1.771 -22.722  0.00  0.00    -0.003 C 
ATOM      3  C   UNL     1       0.990   1.497 -21.731  0.00  0.00    +0.010 C 
ATOM      4  C   UNL     1      -0.262   1.843 -21.788  0.00  0.00    +0.009 C 
ATOM      5  C   UNL     1      -0.718   2.462 -22.836  0.00  0.00    +0.023 C 
ATOM      6  C   UNL     1      -1.970   2.808 -22.894  0.00  0.00    -0.039 A 
ATOM      7  C   UNL     1      -2.765   2.534 -21.903  0.00  0.00    +0.023 A 
ATOM      8  C   UNL     1      -4.018   2.880 -21.960  0.00  0.00    +0.061 A 
ATOM      9  C   UNL     1      -4.474   3.500 -23.008  0.00  0.00    +0.145 A 
ATOM     10  C   UNL     1      -3.677   3.774 -23.999  0.00  0.00    +0.064 A 
ATOM     11 BR   UNL     1      -4.133   4.394 -25.047  0.00  0.00    -0.046 Br
ATOM     12 BR   UNL     1      -4.813   2.607 -20.970  0.00  0.00    -0.046 Br
ATOM     13  C   UNL     1      -2.426   3.428 -23.942  0.00  0.00    -0.026 A 
ATOM     14  C   UNL     1      -1.629   3.702 -24.933  0.00  0.00    +0.037 C 
ATOM     15  C   UNL     1      -0.377   3.356 -24.875  0.00  0.00    +0.009 C 
ATOM     16  C   UNL     1       0.079   2.736 -23.827  0.00  0.00    +0.000 C 
ATOM     17  C   UNL     1       3.051   1.539 -22.910  0.00  0.00    +0.121 C 
ATOM     18  C   UNL     1       3.378   2.016 -24.075  0.00  0.00    +0.032 C 
ATOM     19  C   UNL     1       2.314   2.542 -24.606  0.00  0.00    +0.007 C 
ATOM     20  C   UNL     1       1.330   2.390 -23.770  0.00  0.00    +0.001 C 
ENDROOT
BRANCH   9  21
ATOM     21  O   UNL     1      -5.725   3.846 -23.066  0.00  0.00    -0.505 OA
ATOM     22  H   UNL     1      -5.956   4.738 -23.235  0.00  0.00    +0.292 HD
ENDBRANCH   9  21
BRANCH  17  23
ATOM     23  O   UNL     1       3.850   0.937 -22.081  0.00  0.00    -0.391 OA
ATOM     24  H   UNL     1       3.792   1.362 -21.210  0.00  0.00    +0.210 HD
ENDBRANCH  17  23
TORSDOF 2
ENDMDL
MODEL 4
REMARK VINA RESULT:   -10.740      2.426      5.863
REMARK INTER + INTRA:         -11.368
REMARK INTER:                 -11.368
REMARK INTRA:                   0.000
REMARK UNBOUND:                 0.000
REMARK  Name = C[C@]12CC[C@@H]3c4cc(Br)c(O)c(Br)c4CC[C@H]3[C@H]1CC[C@@H]2O          ZINC000225364540
REMARK  3 active torsions:
REMARK  status: ('A' for Active; 'I' for Inactive)
REMARK    1  A    between atoms: C_1  and  C_2
REMARK    2  A    between atoms: C_10  and  O_11
REMARK    3  A    between atoms: C_21  and  O_22
REMARK                            x       y       z     vdW  Elec       q    Type
REMARK                         _______ _______ _______ _____ _____    ______ ____
ROOT
ATOM      1  C   UNL     1      -3.694   4.065 -25.772  0.00  0.00    +0.014 C 
ATOM      2  C   UNL     1      -3.425   3.667 -24.563  0.00  0.00    -0.003 C 
ATOM      3  C   UNL     1      -2.401   3.657 -25.365  0.00  0.00    +0.010 C 
ATOM      4  C   UNL     1      -1.238   3.272 -24.928  0.00  0.00    +0.009 C 
ATOM      5  C   UNL     1      -1.099   2.896 -23.691  0.00  0.00    +0.023 C 
ATOM      6  C   UNL     1       0.063   2.511 -23.255  0.00  0.00    -0.039 A 
ATOM      7  C   UNL     1       1.086   2.501 -24.056  0.00  0.00    +0.023 A 
ATOM      8  C   UNL     1       2.249   2.115 -23.620  0.00  0.00    +0.061 A 
ATOM      9  C   UNL     1       2.388   1.740 -22.383  0.00  0.00    +0.145 A 
ATOM     10  C   UNL     1       1.363   1.750 -21.582  0.00  0.00    +0.064 A 
ATOM     11 BR   UNL     1       1.501   1.375 -20.345  0.00  0.00    -0.046 Br
ATOM     12 BR   UNL     1       3.273   2.105 -24.420  0.00  0.00    -0.046 Br
ATOM     13  C   UNL     1       0.201   2.136 -22.018  0.00  0.00    -0.026 A 
ATOM     14  C   UNL     1      -0.824   2.146 -21.217  0.00  0.00    +0.037 C 
ATOM     15  C   UNL     1      -1.986   2.532 -21.654  0.00  0.00    +0.009 C 
ATOM     16  C   UNL     1      -2.124   2.907 -22.891  0.00  0.00    +0.000 C 
ATOM     17  C   UNL     1      -4.668   4.001 -24.746  0.00  0.00    +0.121 C 
ATOM     18  C   UNL     1      -5.298   3.832 -23.621  0.00  0.00    +0.032 C 
ATOM     19  C   UNL     1      -4.444   3.394 -22.745  0.00  0.00    +0.007 C 
ATOM     20  C   UNL     1      -3.286   3.292 -23.326  0.00  0.00    +0.001 C 
ENDROOT
BRANCH   9  21
ATOM     21  O   UNL     1       3.550   1.354 -21.946  0.00  0.00    -0.505 OA
ATOM     22  H   UNL     1       4.326   1.586 -22.416  0.00  0.00    +0.292 HD
ENDBRANCH   9  21
BRANCH  17  23
ATOM     23  O   UNL     1      -5.189   4.428 -25.857  0.00  0.00    -0.391 OA
ATOM     24  H   UNL     1      -6.032   3.974 -26.014  0.00  0.00    +0.210 HD
ENDBRANCH  17  23
TORSDOF 2
ENDMDL
MODEL 5
REMARK VINA RESULT:   -10.092      3.151      6.695
REMARK INTER + INTRA:         -10.681
REMARK INTER:                 -10.681
REMARK INTRA:                   0.000
REMARK UNBOUND:                 0.000
REMARK  Name = C[C@]12CC[C@@H]3c4cc(Br)c(O)c(Br)c4CC[C@H]3[C@H]1CC[C@@H]2O          ZINC000225364540
REMARK  3 active torsions:
REMARK  status: ('A' for Active; 'I' for Inactive)
REMARK    1  A    between atoms: C_1  and  C_2
REMARK    2  A    between atoms: C_10  and  O_11
REMARK    3  A    between atoms: C_21  and  O_22
REMARK                            x       y       z     vdW  Elec       q    Type
REMARK                         _______ _______ _______ _____ _____    ______ ____
ROOT
ATOM      1  C   UNL     1      -2.495   2.225 -21.901  0.00  0.00    +0.014 C 
ATOM      2  C   UNL     1      -1.574   2.913 -22.510  0.00  0.00    -0.003 C 
ATOM      3  C   UNL     1      -1.111   1.958 -21.759  0.00  0.00    +0.010 C 
ATOM      4  C   UNL     1       0.172   1.764 -21.672  0.00  0.00    +0.009 C 
ATOM      5  C   UNL     1       0.991   2.525 -22.335  0.00  0.00    +0.023 C 
ATOM      6  C   UNL     1       2.274   2.332 -22.248  0.00  0.00    -0.039 A 
ATOM      7  C   UNL     1       2.736   1.377 -21.497  0.00  0.00    +0.023 A 
ATOM      8  C   UNL     1       4.019   1.183 -21.409  0.00  0.00    +0.061 A 
ATOM      9  C   UNL     1       4.839   1.944 -22.072  0.00  0.00    +0.145 A 
ATOM     10  C   UNL     1       4.375   2.899 -22.823  0.00  0.00    +0.064 A 
ATOM     11 BR   UNL     1       5.194   3.660 -23.486  0.00  0.00    -0.046 Br
ATOM     12 BR   UNL     1       4.483   0.228 -20.659  0.00  0.00    -0.046 Br
ATOM     13  C   UNL     1       3.093   3.093 -22.911  0.00  0.00    -0.026 A 
ATOM     14  C   UNL     1       2.629   4.048 -23.662  0.00  0.00    +0.037 C 
ATOM     15  C   UNL     1       1.346   4.241 -23.749  0.00  0.00    +0.009 C 
ATOM     16  C   UNL     1       0.527   3.480 -23.086  0.00  0.00    +0.000 C 
ATOM     17  C   UNL     1      -2.786   3.308 -22.765  0.00  0.00    +0.121 C 
ATOM     18  C   UNL     1      -2.716   4.314 -23.586  0.00  0.00    +0.032 C 
ATOM     19  C   UNL     1      -1.461   4.539 -23.838  0.00  0.00    +0.007 C 
ATOM     20  C   UNL     1      -0.755   3.674 -23.173  0.00  0.00    +0.001 C 
ENDROOT
BRANCH   9  21
ATOM     21  O   UNL     1       6.121   1.750 -21.985  0.00  0.00    -0.505 OA
ATOM     22  H   UNL     1       6.628   2.247 -21.374  0.00  0.00    +0.292 HD
ENDBRANCH   9  21
BRANCH  17  23
ATOM     23  O   UNL     1      -3.876   2.790 -22.284  0.00  0.00    -0.391 OA
ATOM     24  H   UNL     1      -4.609   2.948 -22.900  0.00  0.00    +0.210 HD
ENDBRANCH  17  23
TORSDOF 2
ENDMDL
MODEL 6
REMARK VINA RESULT:    -9.608      3.186      6.229
REMARK INTER + INTRA:         -10.169
REMARK INTER:                 -10.169
REMARK INTRA:                   0.000
REMARK UNBOUND:                 0.000
REMARK  Name = C[C@]12CC[C@@H]3c4cc(Br)c(O)c(Br)c4CC[C@H]3[C@H]1CC[C@@H]2O          ZINC000225364540
REMARK  3 active torsions:
REMARK  status: ('A' for Active; 'I' for Inactive)
REMARK    1  A    between atoms: C_1  and  C_2
REMARK    2  A    between atoms: C_10  and  O_11
REMARK    3  A    between atoms: C_21  and  O_22
REMARK                            x       y       z     vdW  Elec       q    Type
REMARK                         _______ _______ _______ _____ _____    ______ ____
ROOT
ATOM      1  C   UNL     1      -1.615   4.643 -24.343  0.00  0.00    +0.014 C 
ATOM      2  C   UNL     1      -1.233   3.723 -23.506  0.00  0.00    -0.003 C 
ATOM      3  C   UNL     1      -0.254   4.338 -24.101  0.00  0.00    +0.010 C 
ATOM      4  C   UNL     1       0.977   4.010 -23.834  0.00  0.00    +0.009 C 
ATOM      5  C   UNL     1       1.226   3.068 -22.973  0.00  0.00    +0.023 C 
ATOM      6  C   UNL     1       2.456   2.740 -22.707  0.00  0.00    -0.039 A 
ATOM      7  C   UNL     1       3.435   3.355 -23.301  0.00  0.00    +0.023 A 
ATOM      8  C   UNL     1       4.665   3.028 -23.034  0.00  0.00    +0.061 A 
ATOM      9  C   UNL     1       4.915   2.086 -22.174  0.00  0.00    +0.145 A 
ATOM     10  C   UNL     1       3.935   1.471 -21.580  0.00  0.00    +0.064 A 
ATOM     11 BR   UNL     1       4.184   0.529 -20.720  0.00  0.00    -0.046 Br
ATOM     12 BR   UNL     1       5.645   3.642 -23.628  0.00  0.00    -0.046 Br
ATOM     13  C   UNL     1       2.706   1.798 -21.846  0.00  0.00    -0.026 A 
ATOM     14  C   UNL     1       1.725   1.184 -21.253  0.00  0.00    +0.037 C 
ATOM     15  C   UNL     1       0.496   1.512 -21.519  0.00  0.00    +0.009 C 
ATOM     16  C   UNL     1       0.246   2.454 -22.380  0.00  0.00    +0.000 C 
ATOM     17  C   UNL     1      -2.523   3.857 -23.593  0.00  0.00    +0.121 C 
ATOM     18  C   UNL     1      -3.071   2.997 -22.786  0.00  0.00    +0.032 C 
ATOM     19  C   UNL     1      -2.119   2.333 -22.201  0.00  0.00    +0.007 C 
ATOM     20  C   UNL     1      -0.983   2.781 -22.646  0.00  0.00    +0.001 C 
ENDROOT
BRANCH   9  21
ATOM     21  O   UNL     1       6.144   1.758 -21.907  0.00  0.00    -0.505 OA
ATOM     22  H   UNL     1       6.670   1.342 -22.561  0.00  0.00    +0.292 HD
ENDBRANCH   9  21
BRANCH  17  23
ATOM     23  O   UNL     1      -3.155   4.701 -24.353  0.00  0.00    -0.391 OA
ATOM     24  H   UNL     1      -4.108   4.523 -24.312  0.00  0.00    +0.210 HD
ENDBRANCH  17  23
TORSDOF 2
ENDMDL
MODEL 7
REMARK VINA RESULT:    -8.305      1.837      3.413
REMARK INTER + INTRA:          -8.790
REMARK INTER:                  -8.790
REMARK INTRA:                   0.000
REMARK UNBOUND:                 0.000
REMARK  Name = C[C@]12CC[C@@H]3c4cc(Br)c(O)c(Br)c4CC[C@H]3[C@H]1CC[C@@H]2O          ZINC000225364540
REMARK  3 active torsions:
REMARK  status: ('A' for Active; 'I' for Inactive)
REMARK    1  A    between atoms: C_1  and  C_2
REMARK    2  A    between atoms: C_10  and  O_11
REMARK    3  A    between atoms: C_21  and  O_22
REMARK                            x       y       z     vdW  Elec       q    Type
REMARK                         _______ _______ _______ _____ _____    ______ ____
ROOT
ATOM      1  C   UNL     1       4.686   0.602 -21.892  0.00  0.00    +0.014 C 
ATOM      2  C   UNL     1       4.222   1.682 -22.450  0.00  0.00    -0.003 C 
ATOM      3  C   UNL     1       3.315   0.955 -21.868  0.00  0.00    +0.010 C 
ATOM      4  C   UNL     1       2.071   1.335 -21.881  0.00  0.00    +0.009 C 
ATOM      5  C   UNL     1       1.735   2.440 -22.476  0.00  0.00    +0.023 C 
ATOM      6  C   UNL     1       0.492   2.820 -22.490  0.00  0.00    -0.039 A 
ATOM      7  C   UNL     1      -0.415   2.093 -21.907  0.00  0.00    +0.023 A 
ATOM      8  C   UNL     1      -1.659   2.473 -21.921  0.00  0.00    +0.061 A 
ATOM      9  C   UNL     1      -1.995   3.579 -22.516  0.00  0.00    +0.145 A 
ATOM     10  C   UNL     1      -1.087   4.305 -23.098  0.00  0.00    +0.064 A 
ATOM     11 BR   UNL     1      -1.423   5.411 -23.693  0.00  0.00    -0.046 Br
ATOM     12 BR   UNL     1      -2.567   1.747 -21.339  0.00  0.00    -0.046 Br
ATOM     13  C   UNL     1       0.156   3.926 -23.085  0.00  0.00    -0.026 A 
ATOM     14  C   UNL     1       1.064   4.652 -23.667  0.00  0.00    +0.037 C 
ATOM     15  C   UNL     1       2.307   4.272 -23.654  0.00  0.00    +0.009 C 
ATOM     16  C   UNL     1       2.643   3.166 -23.058  0.00  0.00    +0.000 C 
ATOM     17  C   UNL     1       5.506   1.530 -22.578  0.00  0.00    +0.121 C 
ATOM     18  C   UNL     1       5.965   2.542 -23.253  0.00  0.00    +0.032 C 
ATOM     19  C   UNL     1       4.963   3.319 -23.541  0.00  0.00    +0.007 C 
ATOM     20  C   UNL     1       3.886   2.787 -23.046  0.00  0.00    +0.001 C 
ENDROOT
BRANCH   9  21
ATOM     21  O   UNL     1      -3.238   3.959 -22.529  0.00  0.00    -0.505 OA
ATOM     22  H   UNL     1      -3.742   3.937 -21.740  0.00  0.00    +0.292 HD
ENDBRANCH   9  21
BRANCH  17  23
ATOM     23  O   UNL     1       6.209   0.541 -22.114  0.00  0.00    -0.391 OA
ATOM     24  H   UNL     1       6.842   0.248 -22.789  0.00  0.00    +0.210 HD
ENDBRANCH  17  23
TORSDOF 2
ENDMDL
