MODEL 1
REMARK VINA RESULT:   -12.534      0.000      0.000
REMARK INTER + INTRA:         -15.203
REMARK INTER:                 -14.340
REMARK INTRA:                  -0.863
REMARK UNBOUND:                -0.471
REMARK  Name = COc1ccc2c(c1Oc1ccccc1)[C@]13CC=CC=C1[C@H](C2)NCC3                    ZINC000096316413
REMARK  4 active torsions:
REMARK  status: ('A' for Active; 'I' for Inactive)
REMARK    1  A    between atoms: C_1  and  O_2
REMARK    2  A    between atoms: O_2  and  C_3
REMARK    3  A    between atoms: C_8  and  O_9
REMARK    4  A    between atoms: O_9  and  C_10
REMARK                            x       y       z     vdW  Elec       q    Type
REMARK                         _______ _______ _______ _____ _____    ______ ____
ROOT
ATOM      1  C   UNL     1      -2.162   2.679 -21.452  0.00  0.00    +0.162 A 
ATOM      2  C   UNL     1      -3.161   2.802 -20.699  0.00  0.00    +0.050 A 
ATOM      3  C   UNL     1      -4.265   3.122 -21.202  0.00  0.00    +0.008 A 
ATOM      4  C   UNL     1      -4.349   3.340 -22.633  0.00  0.00    -0.034 A 
ATOM      5  C   UNL     1      -3.478   3.222 -23.205  0.00  0.00    +0.013 A 
ATOM      6  C   UNL     1      -3.317   3.314 -24.129  0.00  0.00    +0.034 C 
ATOM      7  C   UNL     1      -2.249   3.165 -24.799  0.00  0.00    +0.043 C 
ATOM      8  C   UNL     1      -2.264   3.346 -26.079  0.00  0.00    -0.026 C 
ATOM      9  C   UNL     1      -3.378   3.684 -26.692  0.00  0.00    -0.004 C 
ATOM     10  C   UNL     1      -4.494   3.846 -26.036  0.00  0.00    +0.005 C 
ATOM     11  C   UNL     1      -3.427   3.107 -22.461  0.00  0.00    +0.067 C 
ATOM     12  C   UNL     1      -4.735   3.308 -21.769  0.00  0.00    +0.131 C 
ATOM     13  N   UNL     1      -5.681   3.614 -22.427  0.00  0.00    +0.233 N 
ATOM     14  H   UNL     1      -5.878   4.561 -22.103  0.00  0.00    +0.202 HD
ATOM     15  H   UNL     1      -6.384   2.891 -22.276  0.00  0.00    +0.202 HD
ATOM     16  C   UNL     1      -5.567   3.804 -23.976  0.00  0.00    +0.095 C 
ATOM     17  C   UNL     1      -4.517   3.678 -24.787  0.00  0.00    -0.011 C 
ATOM     18  C   UNL     1      -5.407   3.642 -23.071  0.00  0.00    +0.094 C 
ATOM     19  C   UNL     1      -2.306   2.887 -22.708  0.00  0.00    +0.174 A 
ENDROOT
BRANCH   1  21
ATOM     20  C   UNL     1      -0.437   1.207 -21.244  0.00  0.00    +0.277 C 
ATOM     21  O   UNL     1      -0.961   2.348 -21.030  0.00  0.00    -0.491 OA
ENDBRANCH   1  21
BRANCH  19  22
ATOM     22  O   UNL     1      -1.260   2.804 -23.825  0.00  0.00    -0.452 OA
BRANCH  22  23
ATOM     23  C   UNL     1       0.018   3.332 -23.949  0.00  0.00    +0.129 A 
ATOM     24  C   UNL     1       0.179   4.547 -23.566  0.00  0.00    +0.046 A 
ATOM     25  C   UNL     1       1.336   5.095 -23.654  0.00  0.00    +0.004 A 
ATOM     26  C   UNL     1       2.327   4.434 -24.121  0.00  0.00    +0.000 A 
ATOM     27  C   UNL     1       2.167   3.218 -24.504  0.00  0.00    +0.004 A 
ATOM     28  C   UNL     1       1.011   2.668 -24.418  0.00  0.00    +0.046 A 
ENDBRANCH  22  23
ENDBRANCH  19  22
TORSDOF 3
ENDMDL
MODEL 2
REMARK VINA RESULT:   -11.092      1.411      3.468
REMARK INTER + INTRA:         -13.508
REMARK INTER:                 -13.026
REMARK INTRA:                  -0.482
REMARK UNBOUND:                -0.471
REMARK  Name = COc1ccc2c(c1Oc1ccccc1)[C@]13CC=CC=C1[C@H](C2)NCC3                    ZINC000096316413
REMARK  4 active torsions:
REMARK  status: ('A' for Active; 'I' for Inactive)
REMARK    1  A    between atoms: C_1  and  O_2
REMARK    2  A    between atoms: O_2  and  C_3
REMARK    3  A    between atoms: C_8  and  O_9
REMARK    4  A    between atoms: O_9  and  C_10
REMARK                            x       y       z     vdW  Elec       q    Type
REMARK                         _______ _______ _______ _____ _____    ______ ____
ROOT
ATOM      1  C   UNL     1      -1.274   3.326 -25.242  0.00  0.00    +0.162 A 
ATOM      2  C   UNL     1      -2.128   3.443 -26.156  0.00  0.00    +0.050 A 
ATOM      3  C   UNL     1      -3.337   3.570 -25.844  0.00  0.00    +0.008 A 
ATOM      4  C   UNL     1      -3.704   3.576 -24.442  0.00  0.00    -0.034 A 
ATOM      5  C   UNL     1      -2.943   3.473 -23.728  0.00  0.00    +0.013 A 
ATOM      6  C   UNL     1      -2.963   3.452 -22.786  0.00  0.00    +0.034 C 
ATOM      7  C   UNL     1      -2.023   3.327 -21.943  0.00  0.00    +0.043 C 
ATOM      8  C   UNL     1      -2.291   3.325 -20.679  0.00  0.00    -0.026 C 
ATOM      9  C   UNL     1      -3.531   3.452 -20.259  0.00  0.00    -0.004 C 
ATOM     10  C   UNL     1      -4.523   3.583 -21.097  0.00  0.00    +0.005 C 
ATOM     11  C   UNL     1      -2.744   3.469 -24.456  0.00  0.00    +0.067 C 
ATOM     12  C   UNL     1      -3.921   3.623 -25.362  0.00  0.00    +0.131 C 
ATOM     13  N   UNL     1      -5.002   3.730 -24.869  0.00  0.00    +0.233 N 
ATOM     14  H   UNL     1      -5.463   2.868 -25.159  0.00  0.00    +0.202 HD
ATOM     15  H   UNL     1      -5.381   4.619 -25.197  0.00  0.00    +0.202 HD
ATOM     16  C   UNL     1      -5.194   3.713 -23.317  0.00  0.00    +0.095 C 
ATOM     17  C   UNL     1      -4.299   3.589 -22.337  0.00  0.00    -0.011 C 
ATOM     18  C   UNL     1      -4.854   3.697 -24.186  0.00  0.00    +0.094 C 
ATOM     19  C   UNL     1      -1.666   3.339 -24.023  0.00  0.00    +0.174 A 
ENDROOT
BRANCH   1  21
ATOM     20  C   UNL     1       0.769   4.148 -25.824  0.00  0.00    +0.277 C 
ATOM     21  O   UNL     1       0.018   3.188 -25.458  0.00  0.00    -0.491 OA
ENDBRANCH   1  21
BRANCH  19  22
ATOM     22  O   UNL     1      -0.836   3.215 -22.741  0.00  0.00    -0.452 OA
BRANCH  22  23
ATOM     23  C   UNL     1       0.412   2.663 -22.485  0.00  0.00    +0.129 A 
ATOM     24  C   UNL     1       1.426   3.431 -22.651  0.00  0.00    +0.046 A 
ATOM     25  C   UNL     1       2.609   2.983 -22.432  0.00  0.00    +0.004 A 
ATOM     26  C   UNL     1       2.777   1.773 -22.050  0.00  0.00    +0.000 A 
ATOM     27  C   UNL     1       1.762   1.003 -21.884  0.00  0.00    +0.004 A 
ATOM     28  C   UNL     1       0.580   1.449 -22.102  0.00  0.00    +0.046 A 
ENDBRANCH  22  23
ENDBRANCH  19  22
TORSDOF 3
ENDMDL
MODEL 3
REMARK VINA RESULT:   -10.349      2.322      6.076
REMARK INTER + INTRA:         -12.635
REMARK INTER:                 -11.494
REMARK INTRA:                  -1.141
REMARK UNBOUND:                -0.471
REMARK  Name = COc1ccc2c(c1Oc1ccccc1)[C@]13CC=CC=C1[C@H](C2)NCC3                    ZINC000096316413
REMARK  4 active torsions:
REMARK  status: ('A' for Active; 'I' for Inactive)
REMARK    1  A    between atoms: C_1  and  O_2
REMARK    2  A    between atoms: O_2  and  C_3
REMARK    3  A    between atoms: C_8  and  O_9
REMARK    4  A    between atoms: O_9  and  C_10
REMARK                            x       y       z     vdW  Elec       q    Type
REMARK                         _______ _______ _______ _____ _____    ______ ____
ROOT
ATOM      1  C   UNL     1      -0.974   3.297 -24.864  0.00  0.00    +0.162 A 
ATOM      2  C   UNL     1      -0.188   3.778 -25.719  0.00  0.00    +0.050 A 
ATOM      3  C   UNL     1       1.045   3.765 -25.484  0.00  0.00    +0.008 A 
ATOM      4  C   UNL     1       1.517   3.197 -24.236  0.00  0.00    -0.034 A 
ATOM      5  C   UNL     1       0.809   2.812 -23.566  0.00  0.00    +0.013 A 
ATOM      6  C   UNL     1       0.900   2.408 -22.720  0.00  0.00    +0.034 C 
ATOM      7  C   UNL     1       0.022   1.950 -21.926  0.00  0.00    +0.043 C 
ATOM      8  C   UNL     1       0.385   1.431 -20.799  0.00  0.00    -0.026 C 
ATOM      9  C   UNL     1       1.657   1.375 -20.468  0.00  0.00    -0.004 C 
ATOM     10  C   UNL     1       2.587   1.837 -21.259  0.00  0.00    +0.005 C 
ATOM     11  C   UNL     1       0.556   3.106 -24.213  0.00  0.00    +0.067 C 
ATOM     12  C   UNL     1       1.666   3.616 -25.072  0.00  0.00    +0.131 C 
ATOM     13  N   UNL     1       2.784   3.513 -24.670  0.00  0.00    +0.233 N 
ATOM     14  H   UNL     1       3.056   4.485 -24.524  0.00  0.00    +0.202 HD
ATOM     15  H   UNL     1       3.290   2.964 -25.365  0.00  0.00    +0.202 HD
ATOM     16  C   UNL     1       3.092   2.863 -23.282  0.00  0.00    +0.095 C 
ATOM     17  C   UNL     1       2.270   2.349 -22.366  0.00  0.00    -0.011 C 
ATOM     18  C   UNL     1       2.687   3.203 -24.050  0.00  0.00    +0.094 C 
ATOM     19  C   UNL     1      -0.490   2.811 -23.783  0.00  0.00    +0.174 A 
ENDROOT
BRANCH   1  21
ATOM     20  C   UNL     1      -3.022   4.292 -24.925  0.00  0.00    +0.277 C 
ATOM     21  O   UNL     1      -2.282   3.260 -25.009  0.00  0.00    -0.491 OA
ENDBRANCH   1  21
BRANCH  19  22
ATOM     22  O   UNL     1      -1.224   2.174 -22.598  0.00  0.00    -0.452 OA
BRANCH  22  23
ATOM     23  C   UNL     1      -2.239   2.635 -21.771  0.00  0.00    +0.129 A 
ATOM     24  C   UNL     1      -2.130   3.840 -21.342  0.00  0.00    +0.046 A 
ATOM     25  C   UNL     1      -3.034   4.328 -20.573  0.00  0.00    +0.004 A 
ATOM     26  C   UNL     1      -4.042   3.617 -20.234  0.00  0.00    +0.000 A 
ATOM     27  C   UNL     1      -4.153   2.411 -20.663  0.00  0.00    +0.004 A 
ATOM     28  C   UNL     1      -3.250   1.921 -21.432  0.00  0.00    +0.046 A 
ENDBRANCH  22  23
ENDBRANCH  19  22
TORSDOF 3
ENDMDL
MODEL 4
REMARK VINA RESULT:   -10.247      2.038      4.948
REMARK INTER + INTRA:         -12.515
REMARK INTER:                 -11.836
REMARK INTRA:                  -0.679
REMARK UNBOUND:                -0.471
REMARK  Name = COc1ccc2c(c1Oc1ccccc1)[C@]13CC=CC=C1[C@H](C2)NCC3                    ZINC000096316413
REMARK  4 active torsions:
REMARK  status: ('A' for Active; 'I' for Inactive)
REMARK    1  A    between atoms: C_1  and  O_2
REMARK    2  A    between atoms: O_2  and  C_3
REMARK    3  A    between atoms: C_8  and  O_9
REMARK    4  A    between atoms: O_9  and  C_10
REMARK                            x       y       z     vdW  Elec       q    Type
REMARK                         _______ _______ _______ _____ _____    ______ ____
ROOT
ATOM      1  C   UNL     1      -1.628   2.460 -21.453  0.00  0.00    +0.162 A 
ATOM      2  C   UNL     1      -0.984   1.729 -20.659  0.00  0.00    +0.050 A 
ATOM      3  C   UNL     1       0.196   1.412 -20.949  0.00  0.00    +0.008 A 
ATOM      4  C   UNL     1       0.772   1.900 -22.186  0.00  0.00    -0.034 A 
ATOM      5  C   UNL     1       0.181   2.506 -22.804  0.00  0.00    +0.013 A 
ATOM      6  C   UNL     1       0.357   2.920 -23.632  0.00  0.00    +0.034 C 
ATOM      7  C   UNL     1      -0.379   3.652 -24.362  0.00  0.00    +0.043 C 
ATOM      8  C   UNL     1       0.081   4.116 -25.477  0.00  0.00    -0.026 C 
ATOM      9  C   UNL     1       1.308   3.835 -25.861  0.00  0.00    -0.004 C 
ATOM     10  C   UNL     1       2.093   3.086 -25.137  0.00  0.00    +0.005 C 
ATOM     11  C   UNL     1      -0.126   2.256 -22.162  0.00  0.00    +0.067 C 
ATOM     12  C   UNL     1       0.821   1.407 -21.379  0.00  0.00    +0.131 C 
ATOM     13  N   UNL     1       1.911   1.219 -21.825  0.00  0.00    +0.233 N 
ATOM     14  H   UNL     1       1.895   0.220 -22.031  0.00  0.00    +0.202 HD
ATOM     15  H   UNL     1       2.571   1.562 -21.127  0.00  0.00    +0.202 HD
ATOM     16  C   UNL     1       2.349   1.840 -23.192  0.00  0.00    +0.095 C 
ATOM     17  C   UNL     1       1.678   2.616 -24.043  0.00  0.00    -0.011 C 
ATOM     18  C   UNL     1       1.887   1.580 -22.424  0.00  0.00    +0.094 C 
ATOM     19  C   UNL     1      -1.059   2.857 -22.529  0.00  0.00    +0.174 A 
ENDROOT
BRANCH   1  21
ATOM     20  C   UNL     1      -3.197   3.675 -20.334  0.00  0.00    +0.277 C 
ATOM     21  O   UNL     1      -2.868   2.851 -21.248  0.00  0.00    -0.491 OA
ENDBRANCH   1  21
BRANCH  19  22
ATOM     22  O   UNL     1      -1.619   3.743 -23.647  0.00  0.00    -0.452 OA
BRANCH  22  23
ATOM     23  C   UNL     1      -2.766   3.654 -24.423  0.00  0.00    +0.129 A 
ATOM     24  C   UNL     1      -3.789   4.315 -24.017  0.00  0.00    +0.046 A 
ATOM     25  C   UNL     1      -4.882   4.275 -24.689  0.00  0.00    +0.004 A 
ATOM     26  C   UNL     1      -4.952   3.581 -25.761  0.00  0.00    +0.000 A 
ATOM     27  C   UNL     1      -3.929   2.919 -26.169  0.00  0.00    +0.004 A 
ATOM     28  C   UNL     1      -2.836   2.957 -25.499  0.00  0.00    +0.046 A 
ENDBRANCH  22  23
ENDBRANCH  19  22
TORSDOF 3
ENDMDL
MODEL 5
REMARK VINA RESULT:   -10.135      2.750      4.210
REMARK INTER + INTRA:         -12.384
REMARK INTER:                 -11.403
REMARK INTRA:                  -0.980
REMARK UNBOUND:                -0.471
REMARK  Name = COc1ccc2c(c1Oc1ccccc1)[C@]13CC=CC=C1[C@H](C2)NCC3                    ZINC000096316413
REMARK  4 active torsions:
REMARK  status: ('A' for Active; 'I' for Inactive)
REMARK    1  A    between atoms: C_1  and  O_2
REMARK    2  A    between atoms: O_2  and  C_3
REMARK    3  A    between atoms: C_8  and  O_9
REMARK    4  A    between atoms: O_9  and  C_10
REMARK                            x       y       z     vdW  Elec       q    Type
REMARK                         _______ _______ _______ _____ _____    ______ ____
ROOT
ATOM      1  C   UNL     1       2.162   1.674 -21.259  0.00  0.00    +0.162 A 
ATOM      2  C   UNL     1       1.226   1.308 -20.505  0.00  0.00    +0.050 A 
ATOM      3  C   UNL     1       0.041   1.487 -20.878  0.00  0.00    +0.008 A 
ATOM      4  C   UNL     1      -0.205   2.111 -22.163  0.00  0.00    -0.034 A 
ATOM      5  C   UNL     1       0.620   2.393 -22.744  0.00  0.00    +0.013 A 
ATOM      6  C   UNL     1       0.681   2.804 -23.590  0.00  0.00    +0.034 C 
ATOM      7  C   UNL     1       1.697   3.137 -24.274  0.00  0.00    +0.043 C 
ATOM      8  C   UNL     1       1.539   3.696 -25.428  0.00  0.00    -0.026 C 
ATOM      9  C   UNL     1       0.331   3.924 -25.899  0.00  0.00    -0.004 C 
ATOM     10  C   UNL     1      -0.736   3.596 -25.224  0.00  0.00    +0.005 C 
ATOM     11  C   UNL     1       0.756   2.070 -22.077  0.00  0.00    +0.067 C 
ATOM     12  C   UNL     1      -0.503   1.718 -21.354  0.00  0.00    +0.131 C 
ATOM     13  N   UNL     1      -1.544   1.972 -21.878  0.00  0.00    +0.233 N 
ATOM     14  H   UNL     1      -1.928   2.692 -21.267  0.00  0.00    +0.202 HD
ATOM     15  H   UNL     1      -2.045   1.088 -21.965  0.00  0.00    +0.202 HD
ATOM     16  C   UNL     1      -1.601   2.654 -23.284  0.00  0.00    +0.095 C 
ATOM     17  C   UNL     1      -0.619   3.048 -24.095  0.00  0.00    -0.011 C 
ATOM     18  C   UNL     1      -1.336   2.264 -22.480  0.00  0.00    +0.094 C 
ATOM     19  C   UNL     1       1.875   2.219 -22.382  0.00  0.00    +0.174 A 
ENDROOT
BRANCH   1  21
ATOM     20  C   UNL     1       4.001   0.400 -20.830  0.00  0.00    +0.277 C 
ATOM     21  O   UNL     1       3.438   1.534 -20.968  0.00  0.00    -0.491 OA
ENDBRANCH   1  21
BRANCH  19  22
ATOM     22  O   UNL     1       2.818   2.747 -23.469  0.00  0.00    -0.452 OA
BRANCH  22  23
ATOM     23  C   UNL     1       4.043   3.396 -23.407  0.00  0.00    +0.129 A 
ATOM     24  C   UNL     1       4.030   4.612 -22.994  0.00  0.00    +0.046 A 
ATOM     25  C   UNL     1       5.129   5.270 -22.913  0.00  0.00    +0.004 A 
ATOM     26  C   UNL     1       6.235   4.717 -23.242  0.00  0.00    +0.000 A 
ATOM     27  C   UNL     1       6.250   3.500 -23.655  0.00  0.00    +0.004 A 
ATOM     28  C   UNL     1       5.152   2.841 -23.737  0.00  0.00    +0.046 A 
ENDBRANCH  22  23
ENDBRANCH  19  22
TORSDOF 3
ENDMDL
