MODEL 1
REMARK VINA RESULT:   -10.086      0.000      0.000
REMARK INTER + INTRA:         -10.086
REMARK INTER:                 -10.086
REMARK INTRA:                   0.000
REMARK UNBOUND:                 0.000
REMARK  Name = ZINC000004832999
REMARK  2 active torsions:
REMARK  status: ('A' for Active; 'I' for Inactive)
REMARK    1  A    between atoms: C_8  and  C_9
REMARK    2  A    between atoms: C_13  and  C_14
REMARK                            x       y       z     vdW  Elec       q    Type
REMARK                         _______ _______ _______ _____ _____    ______ ____
ROOT
ATOM      1  C   UNL     1       0.474   1.503 -21.122  0.00  0.00    +0.020 C 
ATOM      2  C   UNL     1       0.130   2.034 -22.257  0.00  0.00    +0.040 C 
ATOM      3  C   UNL     1       0.917   2.254 -23.267  0.00  0.00    +0.336 C 
ATOM      4  O   UNL     1       0.212   2.794 -24.216  0.00  0.00    -0.457 OA
ATOM      5  C   UNL     1      -1.012   2.906 -23.792  0.00  0.00    +0.189 C 
ATOM      6  C   UNL     1      -2.087   3.376 -24.353  0.00  0.00    +0.056 C 
ATOM      7  C   UNL     1      -3.213   3.377 -23.703  0.00  0.00    -0.007 C 
ATOM      8  C   UNL     1      -4.287   3.846 -24.263  0.00  0.00    +0.011 C 
ATOM      9  C   UNL     1      -5.412   3.846 -23.612  0.00  0.00    +0.001 C 
ATOM     10  C   UNL     1      -5.463   3.376 -22.401  0.00  0.00    +0.007 C 
ATOM     11  C   UNL     1      -4.388   2.906 -21.840  0.00  0.00    +0.012 C 
ATOM     12  C   UNL     1      -4.439   2.437 -20.629  0.00  0.00    +0.012 C 
ATOM     13  C   UNL     1      -3.162   3.846 -24.914  0.00  0.00    +0.016 C 
ATOM     14  C   UNL     1      -3.262   2.906 -22.491  0.00  0.00    -0.064 C 
ATOM     15  C   UNL     1      -2.188   2.437 -21.930  0.00  0.00    -0.015 C 
ATOM     16  O   UNL     1       2.188   1.983 -23.320  0.00  0.00    -0.245 OA
ATOM     17  C   UNL     1      -1.063   2.437 -22.581  0.00  0.00    +0.089 C 
ENDROOT
TORSDOF 0
ENDMDL
MODEL 2
REMARK VINA RESULT:   -10.023      0.960      2.531
REMARK INTER + INTRA:         -10.023
REMARK INTER:                 -10.023
REMARK INTRA:                   0.000
REMARK UNBOUND:                 0.000
REMARK  Name = ZINC000004832999
REMARK  2 active torsions:
REMARK  status: ('A' for Active; 'I' for Inactive)
REMARK    1  A    between atoms: C_8  and  C_9
REMARK    2  A    between atoms: C_13  and  C_14
REMARK                            x       y       z     vdW  Elec       q    Type
REMARK                         _______ _______ _______ _____ _____    ______ ____
ROOT
ATOM      1  C   UNL     1       0.551   3.367 -25.126  0.00  0.00    +0.020 C 
ATOM      2  C   UNL     1       0.127   3.032 -23.944  0.00  0.00    +0.040 C 
ATOM      3  C   UNL     1       0.859   2.585 -22.967  0.00  0.00    +0.336 C 
ATOM      4  O   UNL     1       0.080   2.363 -21.951  0.00  0.00    -0.457 OA
ATOM      5  C   UNL     1      -1.133   2.673 -22.299  0.00  0.00    +0.189 C 
ATOM      6  C   UNL     1      -2.260   2.632 -21.654  0.00  0.00    +0.056 C 
ATOM      7  C   UNL     1      -3.360   3.004 -22.239  0.00  0.00    -0.007 C 
ATOM      8  C   UNL     1      -4.487   2.963 -21.594  0.00  0.00    +0.011 C 
ATOM      9  C   UNL     1      -5.585   3.336 -22.180  0.00  0.00    +0.001 C 
ATOM     10  C   UNL     1      -5.557   3.750 -23.412  0.00  0.00    +0.007 C 
ATOM     11  C   UNL     1      -4.429   3.791 -24.059  0.00  0.00    +0.012 C 
ATOM     12  C   UNL     1      -4.400   4.205 -25.291  0.00  0.00    +0.012 C 
ATOM     13  C   UNL     1      -3.389   2.591 -21.007  0.00  0.00    +0.016 C 
ATOM     14  C   UNL     1      -3.330   3.418 -23.472  0.00  0.00    -0.064 C 
ATOM     15  C   UNL     1      -2.203   3.460 -24.118  0.00  0.00    -0.015 C 
ATOM     16  O   UNL     1       2.145   2.394 -23.002  0.00  0.00    -0.245 OA
ATOM     17  C   UNL     1      -1.104   3.087 -23.531  0.00  0.00    +0.089 C 
ENDROOT
TORSDOF 0
ENDMDL
MODEL 3
REMARK VINA RESULT:    -9.567      2.217      5.293
REMARK INTER + INTRA:          -9.567
REMARK INTER:                  -9.567
REMARK INTRA:                   0.000
REMARK UNBOUND:                 0.000
REMARK  Name = ZINC000004832999
REMARK  2 active torsions:
REMARK  status: ('A' for Active; 'I' for Inactive)
REMARK    1  A    between atoms: C_8  and  C_9
REMARK    2  A    between atoms: C_13  and  C_14
REMARK                            x       y       z     vdW  Elec       q    Type
REMARK                         _______ _______ _______ _____ _____    ______ ____
ROOT
ATOM      1  C   UNL     1      -4.675   4.256 -24.392  0.00  0.00    +0.020 C 
ATOM      2  C   UNL     1      -4.197   3.618 -23.365  0.00  0.00    +0.040 C 
ATOM      3  C   UNL     1      -4.871   3.233 -22.323  0.00  0.00    +0.336 C 
ATOM      4  O   UNL     1      -4.052   2.630 -21.514  0.00  0.00    -0.457 OA
ATOM      5  C   UNL     1      -2.870   2.642 -22.057  0.00  0.00    +0.189 C 
ATOM      6  C   UNL     1      -1.725   2.176 -21.657  0.00  0.00    +0.056 C 
ATOM      7  C   UNL     1      -0.668   2.320 -22.401  0.00  0.00    -0.007 C 
ATOM      8  C   UNL     1       0.477   1.854 -22.001  0.00  0.00    +0.011 C 
ATOM      9  C   UNL     1       1.533   1.998 -22.746  0.00  0.00    +0.001 C 
ATOM     10  C   UNL     1       1.443   2.609 -23.890  0.00  0.00    +0.007 C 
ATOM     11  C   UNL     1       0.297   3.075 -24.291  0.00  0.00    +0.012 C 
ATOM     12  C   UNL     1       0.208   3.686 -25.435  0.00  0.00    +0.012 C 
ATOM     13  C   UNL     1      -0.578   1.710 -21.257  0.00  0.00    +0.016 C 
ATOM     14  C   UNL     1      -0.759   2.931 -23.546  0.00  0.00    -0.064 C 
ATOM     15  C   UNL     1      -1.905   3.397 -23.946  0.00  0.00    -0.015 C 
ATOM     16  O   UNL     1      -6.143   3.419 -22.124  0.00  0.00    -0.245 OA
ATOM     17  C   UNL     1      -2.960   3.253 -23.201  0.00  0.00    +0.089 C 
ENDROOT
TORSDOF 0
ENDMDL
MODEL 4
REMARK VINA RESULT:    -9.414      2.166      4.626
REMARK INTER + INTRA:          -9.414
REMARK INTER:                  -9.414
REMARK INTRA:                   0.000
REMARK UNBOUND:                 0.000
REMARK  Name = ZINC000004832999
REMARK  2 active torsions:
REMARK  status: ('A' for Active; 'I' for Inactive)
REMARK    1  A    between atoms: C_8  and  C_9
REMARK    2  A    between atoms: C_13  and  C_14
REMARK                            x       y       z     vdW  Elec       q    Type
REMARK                         _______ _______ _______ _____ _____    ______ ____
ROOT
ATOM      1  C   UNL     1      -4.155   2.271 -20.553  0.00  0.00    +0.020 C 
ATOM      2  C   UNL     1      -4.033   2.772 -21.746  0.00  0.00    +0.040 C 
ATOM      3  C   UNL     1      -4.986   3.301 -22.454  0.00  0.00    +0.336 C 
ATOM      4  O   UNL     1      -4.477   3.689 -23.586  0.00  0.00    -0.457 OA
ATOM      5  C   UNL     1      -3.210   3.399 -23.577  0.00  0.00    +0.189 C 
ATOM      6  C   UNL     1      -2.271   3.578 -24.457  0.00  0.00    +0.056 C 
ATOM      7  C   UNL     1      -1.056   3.190 -24.202  0.00  0.00    -0.007 C 
ATOM      8  C   UNL     1      -0.117   3.369 -25.082  0.00  0.00    +0.011 C 
ATOM      9  C   UNL     1       1.097   2.981 -24.825  0.00  0.00    +0.001 C 
ATOM     10  C   UNL     1       1.371   2.415 -23.688  0.00  0.00    +0.007 C 
ATOM     11  C   UNL     1       0.432   2.235 -22.806  0.00  0.00    +0.012 C 
ATOM     12  C   UNL     1       0.707   1.669 -21.669  0.00  0.00    +0.012 C 
ATOM     13  C   UNL     1      -1.331   3.757 -25.339  0.00  0.00    +0.016 C 
ATOM     14  C   UNL     1      -0.782   2.623 -23.063  0.00  0.00    -0.064 C 
ATOM     15  C   UNL     1      -1.721   2.444 -22.183  0.00  0.00    -0.015 C 
ATOM     16  O   UNL     1      -6.229   3.422 -22.094  0.00  0.00    -0.245 OA
ATOM     17  C   UNL     1      -2.935   2.832 -22.439  0.00  0.00    +0.089 C 
ENDROOT
TORSDOF 0
ENDMDL
MODEL 5
REMARK VINA RESULT:    -8.526      2.289      4.153
REMARK INTER + INTRA:          -8.526
REMARK INTER:                  -8.526
REMARK INTRA:                   0.000
REMARK UNBOUND:                 0.000
REMARK  Name = ZINC000004832999
REMARK  2 active torsions:
REMARK  status: ('A' for Active; 'I' for Inactive)
REMARK    1  A    between atoms: C_8  and  C_9
REMARK    2  A    between atoms: C_13  and  C_14
REMARK                            x       y       z     vdW  Elec       q    Type
REMARK                         _______ _______ _______ _____ _____    ______ ____
ROOT
ATOM      1  C   UNL     1       4.505   2.925 -23.200  0.00  0.00    +0.020 C 
ATOM      2  C   UNL     1       3.659   2.126 -22.621  0.00  0.00    +0.040 C 
ATOM      3  C   UNL     1       3.945   0.997 -22.043  0.00  0.00    +0.336 C 
ATOM      4  O   UNL     1       2.840   0.490 -21.584  0.00  0.00    -0.457 OA
ATOM      5  C   UNL     1       1.871   1.305 -21.877  0.00  0.00    +0.189 C 
ATOM      6  C   UNL     1       0.594   1.257 -21.643  0.00  0.00    +0.056 C 
ATOM      7  C   UNL     1      -0.179   2.220 -22.049  0.00  0.00    -0.007 C 
ATOM      8  C   UNL     1      -1.457   2.172 -21.815  0.00  0.00    +0.011 C 
ATOM      9  C   UNL     1      -2.228   3.136 -22.223  0.00  0.00    +0.001 C 
ATOM     10  C   UNL     1      -1.722   4.147 -22.864  0.00  0.00    +0.007 C 
ATOM     11  C   UNL     1      -0.445   4.196 -23.098  0.00  0.00    +0.012 C 
ATOM     12  C   UNL     1       0.061   5.207 -23.739  0.00  0.00    +0.012 C 
ATOM     13  C   UNL     1      -0.685   1.209 -21.408  0.00  0.00    +0.016 C 
ATOM     14  C   UNL     1       0.328   3.232 -22.691  0.00  0.00    -0.064 C 
ATOM     15  C   UNL     1       1.605   3.280 -22.925  0.00  0.00    -0.015 C 
ATOM     16  O   UNL     1       5.129   0.469 -21.944  0.00  0.00    -0.245 OA
ATOM     17  C   UNL     1       2.377   2.317 -22.518  0.00  0.00    +0.089 C 
ENDROOT
TORSDOF 0
ENDMDL
MODEL 6
REMARK VINA RESULT:    -8.222      2.564      4.028
REMARK INTER + INTRA:          -8.222
REMARK INTER:                  -8.222
REMARK INTRA:                   0.000
REMARK UNBOUND:                 0.000
REMARK  Name = ZINC000004832999
REMARK  2 active torsions:
REMARK  status: ('A' for Active; 'I' for Inactive)
REMARK    1  A    between atoms: C_8  and  C_9
REMARK    2  A    between atoms: C_13  and  C_14
REMARK                            x       y       z     vdW  Elec       q    Type
REMARK                         _______ _______ _______ _____ _____    ______ ____
ROOT
ATOM      1  C   UNL     1       3.838   0.557 -21.333  0.00  0.00    +0.020 C 
ATOM      2  C   UNL     1       3.795   1.663 -22.014  0.00  0.00    +0.040 C 
ATOM      3  C   UNL     1       4.819   2.311 -22.484  0.00  0.00    +0.336 C 
ATOM      4  O   UNL     1       4.377   3.364 -23.107  0.00  0.00    -0.457 OA
ATOM      5  C   UNL     1       3.080   3.365 -23.021  0.00  0.00    +0.189 C 
ATOM      6  C   UNL     1       2.180   4.189 -23.470  0.00  0.00    +0.056 C 
ATOM      7  C   UNL     1       0.920   3.962 -23.245  0.00  0.00    -0.007 C 
ATOM      8  C   UNL     1       0.020   4.785 -23.695  0.00  0.00    +0.011 C 
ATOM      9  C   UNL     1      -1.240   4.557 -23.469  0.00  0.00    +0.001 C 
ATOM     10  C   UNL     1      -1.599   3.506 -22.794  0.00  0.00    +0.007 C 
ATOM     11  C   UNL     1      -0.700   2.682 -22.344  0.00  0.00    +0.012 C 
ATOM     12  C   UNL     1      -1.060   1.631 -21.669  0.00  0.00    +0.012 C 
ATOM     13  C   UNL     1       1.280   5.013 -23.920  0.00  0.00    +0.016 C 
ATOM     14  C   UNL     1       0.561   2.910 -22.569  0.00  0.00    -0.064 C 
ATOM     15  C   UNL     1       1.460   2.086 -22.120  0.00  0.00    -0.015 C 
ATOM     16  O   UNL     1       6.066   1.967 -22.355  0.00  0.00    -0.245 OA
ATOM     17  C   UNL     1       2.720   2.314 -22.346  0.00  0.00    +0.089 C 
ENDROOT
TORSDOF 0
ENDMDL
MODEL 7
REMARK VINA RESULT:    -7.899      2.803      6.631
REMARK INTER + INTRA:          -7.899
REMARK INTER:                  -7.899
REMARK INTRA:                   0.000
REMARK UNBOUND:                 0.000
REMARK  Name = ZINC000004832999
REMARK  2 active torsions:
REMARK  status: ('A' for Active; 'I' for Inactive)
REMARK    1  A    between atoms: C_8  and  C_9
REMARK    2  A    between atoms: C_13  and  C_14
REMARK                            x       y       z     vdW  Elec       q    Type
REMARK                         _______ _______ _______ _____ _____    ______ ____
ROOT
ATOM      1  C   UNL     1      -0.514   4.708 -23.673  0.00  0.00    +0.020 C 
ATOM      2  C   UNL     1      -0.217   3.501 -23.290  0.00  0.00    +0.040 C 
ATOM      3  C   UNL     1      -1.061   2.532 -23.096  0.00  0.00    +0.336 C 
ATOM      4  O   UNL     1      -0.390   1.485 -22.720  0.00  0.00    -0.457 OA
ATOM      5  C   UNL     1       0.869   1.807 -22.682  0.00  0.00    +0.189 C 
ATOM      6  C   UNL     1       1.932   1.126 -22.372  0.00  0.00    +0.056 C 
ATOM      7  C   UNL     1       3.102   1.690 -22.414  0.00  0.00    -0.007 C 
ATOM      8  C   UNL     1       4.165   1.009 -22.104  0.00  0.00    +0.011 C 
ATOM      9  C   UNL     1       5.334   1.575 -22.147  0.00  0.00    +0.001 C 
ATOM     10  C   UNL     1       5.441   2.822 -22.499  0.00  0.00    +0.007 C 
ATOM     11  C   UNL     1       4.378   3.504 -22.809  0.00  0.00    +0.012 C 
ATOM     12  C   UNL     1       4.485   4.750 -23.162  0.00  0.00    +0.012 C 
ATOM     13  C   UNL     1       2.995   0.443 -22.062  0.00  0.00    +0.016 C 
ATOM     14  C   UNL     1       3.208   2.938 -22.767  0.00  0.00    -0.064 C 
ATOM     15  C   UNL     1       2.145   3.619 -23.077  0.00  0.00    -0.015 C 
ATOM     16  O   UNL     1      -2.350   2.599 -23.251  0.00  0.00    -0.245 OA
ATOM     17  C   UNL     1       0.976   3.053 -23.034  0.00  0.00    +0.089 C 
ENDROOT
TORSDOF 0
ENDMDL
MODEL 8
REMARK VINA RESULT:    -7.691      2.191      5.231
REMARK INTER + INTRA:          -7.691
REMARK INTER:                  -7.691
REMARK INTRA:                   0.000
REMARK UNBOUND:                 0.000
REMARK  Name = ZINC000004832999
REMARK  2 active torsions:
REMARK  status: ('A' for Active; 'I' for Inactive)
REMARK    1  A    between atoms: C_8  and  C_9
REMARK    2  A    between atoms: C_13  and  C_14
REMARK                            x       y       z     vdW  Elec       q    Type
REMARK                         _______ _______ _______ _____ _____    ______ ____
ROOT
ATOM      1  C   UNL     1      -3.016   2.234 -22.155  0.00  0.00    +0.020 C 
ATOM      2  C   UNL     1      -2.393   3.138 -22.850  0.00  0.00    +0.040 C 
ATOM      3  C   UNL     1      -2.948   4.061 -23.577  0.00  0.00    +0.336 C 
ATOM      4  O   UNL     1      -2.002   4.772 -24.115  0.00  0.00    -0.457 OA
ATOM      5  C   UNL     1      -0.862   4.287 -23.720  0.00  0.00    +0.189 C 
ATOM      6  C   UNL     1       0.365   4.636 -23.972  0.00  0.00    +0.056 C 
ATOM      7  C   UNL     1       1.351   3.975 -23.442  0.00  0.00    -0.007 C 
ATOM      8  C   UNL     1       2.578   4.323 -23.694  0.00  0.00    +0.011 C 
ATOM      9  C   UNL     1       3.563   3.661 -23.164  0.00  0.00    +0.001 C 
ATOM     10  C   UNL     1       3.321   2.652 -22.381  0.00  0.00    +0.007 C 
ATOM     11  C   UNL     1       2.094   2.303 -22.129  0.00  0.00    +0.012 C 
ATOM     12  C   UNL     1       1.853   1.293 -21.346  0.00  0.00    +0.012 C 
ATOM     13  C   UNL     1       1.593   4.984 -24.225  0.00  0.00    +0.016 C 
ATOM     14  C   UNL     1       1.108   2.964 -22.659  0.00  0.00    -0.064 C 
ATOM     15  C   UNL     1      -0.118   2.616 -22.408  0.00  0.00    -0.015 C 
ATOM     16  O   UNL     1      -4.225   4.242 -23.738  0.00  0.00    -0.245 OA
ATOM     17  C   UNL     1      -1.103   3.278 -22.938  0.00  0.00    +0.089 C 
ENDROOT
TORSDOF 0
ENDMDL
MODEL 9
REMARK VINA RESULT:    -7.100      4.514      6.513
REMARK INTER + INTRA:          -7.100
REMARK INTER:                  -7.100
REMARK INTRA:                   0.000
REMARK UNBOUND:                 0.000
REMARK  Name = ZINC000004832999
REMARK  2 active torsions:
REMARK  status: ('A' for Active; 'I' for Inactive)
REMARK    1  A    between atoms: C_8  and  C_9
REMARK    2  A    between atoms: C_13  and  C_14
REMARK                            x       y       z     vdW  Elec       q    Type
REMARK                         _______ _______ _______ _____ _____    ______ ____
ROOT
ATOM      1  C   UNL     1       7.127   3.057 -22.890  0.00  0.00    +0.020 C 
ATOM      2  C   UNL     1       6.254   4.009 -22.747  0.00  0.00    +0.040 C 
ATOM      3  C   UNL     1       6.472   5.172 -22.210  0.00  0.00    +0.336 C 
ATOM      4  O   UNL     1       5.361   5.846 -22.248  0.00  0.00    -0.457 OA
ATOM      5  C   UNL     1       4.457   5.099 -22.809  0.00  0.00    +0.189 C 
ATOM      6  C   UNL     1       3.203   5.307 -23.078  0.00  0.00    +0.056 C 
ATOM      7  C   UNL     1       2.499   4.380 -23.657  0.00  0.00    -0.007 C 
ATOM      8  C   UNL     1       1.245   4.588 -23.927  0.00  0.00    +0.011 C 
ATOM      9  C   UNL     1       0.542   3.660 -24.505  0.00  0.00    +0.001 C 
ATOM     10  C   UNL     1       1.094   2.524 -24.814  0.00  0.00    +0.007 C 
ATOM     11  C   UNL     1       2.348   2.315 -24.545  0.00  0.00    +0.012 C 
ATOM     12  C   UNL     1       2.900   1.179 -24.853  0.00  0.00    +0.012 C 
ATOM     13  C   UNL     1       1.947   5.516 -23.348  0.00  0.00    +0.016 C 
ATOM     14  C   UNL     1       3.052   3.243 -23.966  0.00  0.00    -0.064 C 
ATOM     15  C   UNL     1       4.306   3.035 -23.696  0.00  0.00    -0.015 C 
ATOM     16  O   UNL     1       7.602   5.587 -21.720  0.00  0.00    -0.245 OA
ATOM     17  C   UNL     1       5.009   3.963 -23.118  0.00  0.00    +0.089 C 
ENDROOT
TORSDOF 0
ENDMDL
