MODEL 1
REMARK VINA RESULT:    -9.589      0.000      0.000
REMARK INTER + INTRA:         -11.054
REMARK INTER:                 -10.987
REMARK INTRA:                  -0.067
REMARK UNBOUND:                -0.064
REMARK  Name = ZINC000004098644
REMARK  4 active torsions:
REMARK  status: ('A' for Active; 'I' for Inactive)
REMARK    1  A    between atoms: C_7  and  O_8
REMARK    2  A    between atoms: C_13  and  O_14
REMARK    3  A    between atoms: C_16  and  C_17
REMARK    4  A    between atoms: C_17  and  O_18
REMARK                            x       y       z     vdW  Elec       q    Type
REMARK                         _______ _______ _______ _____ _____    ______ ____
ROOT
ATOM      1  O   UNL     1      -2.524   2.535 -20.991  0.00  0.00    -0.287 OA
ATOM      2  C   UNL     1      -2.370   2.824 -22.249  0.00  0.00    +0.195 C 
ATOM      3  C   UNL     1      -3.388   3.217 -22.955  0.00  0.00    +0.037 A 
ATOM      4  C   UNL     1      -4.561   3.322 -22.403  0.00  0.00    +0.012 A 
ATOM      5  C   UNL     1      -5.579   3.716 -23.109  0.00  0.00    +0.004 A 
ATOM      6  C   UNL     1      -5.425   4.005 -24.367  0.00  0.00    +0.046 A 
ATOM      7  C   UNL     1      -4.253   3.900 -24.919  0.00  0.00    +0.128 A 
ATOM      8  C   UNL     1      -3.234   3.506 -24.213  0.00  0.00    +0.075 A 
ATOM      9  C   UNL     1      -2.062   3.402 -24.765  0.00  0.00    +0.202 C 
ATOM     10  C   UNL     1      -1.044   3.008 -24.059  0.00  0.00    +0.075 A 
ATOM     11  C   UNL     1       0.128   2.903 -24.611  0.00  0.00    +0.129 A 
ATOM     12  C   UNL     1       1.147   2.510 -23.905  0.00  0.00    +0.052 A 
ATOM     13  C   UNL     1       0.993   2.221 -22.647  0.00  0.00    -0.018 A 
ATOM     14  C   UNL     1      -0.180   2.325 -22.095  0.00  0.00    +0.018 A 
ATOM     15  O   UNL     1      -1.908   3.691 -26.023  0.00  0.00    -0.286 OA
ATOM     16  C   UNL     1      -1.198   2.719 -22.801  0.00  0.00    +0.037 A 
ENDROOT
BRANCH   7  17
ATOM     17  O   UNL     1      -4.099   4.189 -26.177  0.00  0.00    -0.506 OA
ATOM     18  H   UNL     1      -3.348   3.875 -26.642  0.00  0.00    +0.292 HD
ENDBRANCH   7  17
BRANCH  11  19
ATOM     19  O   UNL     1       0.283   3.192 -25.869  0.00  0.00    -0.506 OA
ATOM     20  H   UNL     1       0.942   2.756 -26.372  0.00  0.00    +0.292 HD
ENDBRANCH  11  19
BRANCH  13  21
ATOM     21  C   UNL     1       2.010   1.827 -21.941  0.00  0.00    +0.191 C 
BRANCH  21  22
ATOM     22  O   UNL     1       1.822   1.121 -20.866  0.00  0.00    -0.390 OA
ATOM     23  H   UNL     1       2.679   0.921 -20.456  0.00  0.00    +0.210 HD
ENDBRANCH  21  22
ENDBRANCH  13  21
TORSDOF 4
ENDMDL
MODEL 2
REMARK VINA RESULT:    -9.394      0.977      3.274
REMARK INTER + INTRA:         -10.830
REMARK INTER:                 -10.769
REMARK INTRA:                  -0.062
REMARK UNBOUND:                -0.064
REMARK  Name = ZINC000004098644
REMARK  4 active torsions:
REMARK  status: ('A' for Active; 'I' for Inactive)
REMARK    1  A    between atoms: C_7  and  O_8
REMARK    2  A    between atoms: C_13  and  O_14
REMARK    3  A    between atoms: C_16  and  C_17
REMARK    4  A    between atoms: C_17  and  O_18
REMARK                            x       y       z     vdW  Elec       q    Type
REMARK                         _______ _______ _______ _____ _____    ______ ____
ROOT
ATOM      1  O   UNL     1      -2.570   3.768 -25.888  0.00  0.00    -0.287 OA
ATOM      2  C   UNL     1      -2.398   3.391 -24.656  0.00  0.00    +0.195 C 
ATOM      3  C   UNL     1      -3.401   3.394 -23.829  0.00  0.00    +0.037 A 
ATOM      4  C   UNL     1      -4.577   3.774 -24.235  0.00  0.00    +0.012 A 
ATOM      5  C   UNL     1      -5.580   3.777 -23.408  0.00  0.00    +0.004 A 
ATOM      6  C   UNL     1      -5.408   3.400 -22.176  0.00  0.00    +0.046 A 
ATOM      7  C   UNL     1      -4.234   3.020 -21.770  0.00  0.00    +0.128 A 
ATOM      8  C   UNL     1      -3.229   3.017 -22.597  0.00  0.00    +0.075 A 
ATOM      9  C   UNL     1      -2.055   2.638 -22.191  0.00  0.00    +0.202 C 
ATOM     10  C   UNL     1      -1.052   2.635 -23.018  0.00  0.00    +0.075 A 
ATOM     11  C   UNL     1       0.123   2.255 -22.612  0.00  0.00    +0.129 A 
ATOM     12  C   UNL     1       1.127   2.252 -23.439  0.00  0.00    +0.052 A 
ATOM     13  C   UNL     1       0.956   2.629 -24.671  0.00  0.00    -0.018 A 
ATOM     14  C   UNL     1      -0.220   3.009 -25.077  0.00  0.00    +0.018 A 
ATOM     15  O   UNL     1      -1.883   2.261 -20.959  0.00  0.00    -0.286 OA
ATOM     16  C   UNL     1      -1.223   3.011 -24.250  0.00  0.00    +0.037 A 
ENDROOT
BRANCH   7  17
ATOM     17  O   UNL     1      -4.062   2.644 -20.538  0.00  0.00    -0.506 OA
ATOM     18  H   UNL     1      -4.291   3.220 -19.836  0.00  0.00    +0.292 HD
ENDBRANCH   7  17
BRANCH  11  19
ATOM     19  O   UNL     1       0.296   1.878 -21.380  0.00  0.00    -0.506 OA
ATOM     20  H   UNL     1       1.069   1.408 -21.139  0.00  0.00    +0.292 HD
ENDBRANCH  11  19
BRANCH  13  21
ATOM     21  C   UNL     1       1.959   2.626 -25.498  0.00  0.00    +0.191 C 
BRANCH  21  22
ATOM     22  O   UNL     1       1.891   1.940 -26.600  0.00  0.00    -0.390 OA
ATOM     23  H   UNL     1       2.787   1.774 -26.933  0.00  0.00    +0.210 HD
ENDBRANCH  21  22
ENDBRANCH  13  21
TORSDOF 4
ENDMDL
MODEL 3
REMARK VINA RESULT:    -9.354      2.065      3.808
REMARK INTER + INTRA:         -10.784
REMARK INTER:                 -10.725
REMARK INTRA:                  -0.059
REMARK UNBOUND:                -0.064
REMARK  Name = ZINC000004098644
REMARK  4 active torsions:
REMARK  status: ('A' for Active; 'I' for Inactive)
REMARK    1  A    between atoms: C_7  and  O_8
REMARK    2  A    between atoms: C_13  and  O_14
REMARK    3  A    between atoms: C_16  and  C_17
REMARK    4  A    between atoms: C_17  and  O_18
REMARK                            x       y       z     vdW  Elec       q    Type
REMARK                         _______ _______ _______ _____ _____    ______ ____
ROOT
ATOM      1  O   UNL     1       0.443   1.417 -20.399  0.00  0.00    -0.287 OA
ATOM      2  C   UNL     1       0.846   1.690 -21.605  0.00  0.00    +0.195 C 
ATOM      3  C   UNL     1       0.017   2.195 -22.469  0.00  0.00    +0.037 A 
ATOM      4  C   UNL     1      -1.217   2.427 -22.128  0.00  0.00    +0.012 A 
ATOM      5  C   UNL     1      -2.046   2.931 -22.992  0.00  0.00    +0.004 A 
ATOM      6  C   UNL     1      -1.643   3.205 -24.197  0.00  0.00    +0.046 A 
ATOM      7  C   UNL     1      -0.410   2.974 -24.538  0.00  0.00    +0.128 A 
ATOM      8  C   UNL     1       0.420   2.469 -23.674  0.00  0.00    +0.075 A 
ATOM      9  C   UNL     1       1.653   2.238 -24.015  0.00  0.00    +0.202 C 
ATOM     10  C   UNL     1       2.482   1.733 -23.151  0.00  0.00    +0.075 A 
ATOM     11  C   UNL     1       3.715   1.502 -23.492  0.00  0.00    +0.129 A 
ATOM     12  C   UNL     1       4.545   0.997 -22.628  0.00  0.00    +0.052 A 
ATOM     13  C   UNL     1       4.142   0.723 -21.423  0.00  0.00    -0.018 A 
ATOM     14  C   UNL     1       2.909   0.955 -21.082  0.00  0.00    +0.018 A 
ATOM     15  O   UNL     1       2.056   2.511 -25.220  0.00  0.00    -0.286 OA
ATOM     16  C   UNL     1       2.079   1.459 -21.946  0.00  0.00    +0.037 A 
ENDROOT
BRANCH   7  17
ATOM     17  O   UNL     1      -0.007   3.247 -25.743  0.00  0.00    -0.506 OA
ATOM     18  H   UNL     1       0.769   3.755 -25.874  0.00  0.00    +0.292 HD
ENDBRANCH   7  17
BRANCH  11  19
ATOM     19  O   UNL     1       4.119   1.775 -24.697  0.00  0.00    -0.506 OA
ATOM     20  H   UNL     1       3.761   1.309 -25.427  0.00  0.00    +0.292 HD
ENDBRANCH  11  19
BRANCH  13  21
ATOM     21  C   UNL     1       4.972   0.219 -20.559  0.00  0.00    +0.191 C 
BRANCH  21  22
ATOM     22  O   UNL     1       5.653   1.003 -19.776  0.00  0.00    -0.390 OA
ATOM     23  H   UNL     1       5.592   1.915 -20.100  0.00  0.00    +0.210 HD
ENDBRANCH  21  22
ENDBRANCH  13  21
TORSDOF 4
ENDMDL
MODEL 4
REMARK VINA RESULT:    -8.989      1.318      4.913
REMARK INTER + INTRA:         -10.366
REMARK INTER:                 -10.300
REMARK INTRA:                  -0.066
REMARK UNBOUND:                -0.064
REMARK  Name = ZINC000004098644
REMARK  4 active torsions:
REMARK  status: ('A' for Active; 'I' for Inactive)
REMARK    1  A    between atoms: C_7  and  O_8
REMARK    2  A    between atoms: C_13  and  O_14
REMARK    3  A    between atoms: C_16  and  C_17
REMARK    4  A    between atoms: C_17  and  O_18
REMARK                            x       y       z     vdW  Elec       q    Type
REMARK                         _______ _______ _______ _____ _____    ______ ____
ROOT
ATOM      1  O   UNL     1      -0.642   1.965 -21.020  0.00  0.00    -0.287 OA
ATOM      2  C   UNL     1      -0.727   2.406 -22.241  0.00  0.00    +0.195 C 
ATOM      3  C   UNL     1       0.334   2.455 -22.989  0.00  0.00    +0.037 A 
ATOM      4  C   UNL     1       1.481   2.063 -22.518  0.00  0.00    +0.012 A 
ATOM      5  C   UNL     1       2.543   2.111 -23.267  0.00  0.00    +0.004 A 
ATOM      6  C   UNL     1       2.458   2.552 -24.487  0.00  0.00    +0.046 A 
ATOM      7  C   UNL     1       1.312   2.944 -24.958  0.00  0.00    +0.128 A 
ATOM      8  C   UNL     1       0.250   2.895 -24.209  0.00  0.00    +0.075 A 
ATOM      9  C   UNL     1      -0.896   3.287 -24.681  0.00  0.00    +0.202 C 
ATOM     10  C   UNL     1      -1.958   3.239 -23.932  0.00  0.00    +0.075 A 
ATOM     11  C   UNL     1      -3.104   3.631 -24.403  0.00  0.00    +0.129 A 
ATOM     12  C   UNL     1      -4.166   3.582 -23.654  0.00  0.00    +0.052 A 
ATOM     13  C   UNL     1      -4.081   3.142 -22.434  0.00  0.00    -0.018 A 
ATOM     14  C   UNL     1      -2.934   2.749 -21.963  0.00  0.00    +0.018 A 
ATOM     15  O   UNL     1      -0.981   3.728 -25.901  0.00  0.00    -0.286 OA
ATOM     16  C   UNL     1      -1.873   2.798 -22.712  0.00  0.00    +0.037 A 
ENDROOT
BRANCH   7  17
ATOM     17  O   UNL     1       1.227   3.385 -26.178  0.00  0.00    -0.506 OA
ATOM     18  H   UNL     1       1.995   3.690 -26.620  0.00  0.00    +0.292 HD
ENDBRANCH   7  17
BRANCH  11  19
ATOM     19  O   UNL     1      -3.189   4.072 -25.623  0.00  0.00    -0.506 OA
ATOM     20  H   UNL     1      -2.417   4.350 -26.075  0.00  0.00    +0.292 HD
ENDBRANCH  11  19
BRANCH  13  21
ATOM     21  C   UNL     1      -5.142   3.093 -21.685  0.00  0.00    +0.191 C 
BRANCH  21  22
ATOM     22  O   UNL     1      -6.284   3.511 -22.147  0.00  0.00    -0.390 OA
ATOM     23  H   UNL     1      -6.955   3.454 -21.449  0.00  0.00    +0.210 HD
ENDBRANCH  21  22
ENDBRANCH  13  21
TORSDOF 4
ENDMDL
MODEL 5
REMARK VINA RESULT:    -8.934      1.560      2.223
REMARK INTER + INTRA:         -10.303
REMARK INTER:                 -10.238
REMARK INTRA:                  -0.065
REMARK UNBOUND:                -0.064
REMARK  Name = ZINC000004098644
REMARK  4 active torsions:
REMARK  status: ('A' for Active; 'I' for Inactive)
REMARK    1  A    between atoms: C_7  and  O_8
REMARK    2  A    between atoms: C_13  and  O_14
REMARK    3  A    between atoms: C_16  and  C_17
REMARK    4  A    between atoms: C_17  and  O_18
REMARK                            x       y       z     vdW  Elec       q    Type
REMARK                         _______ _______ _______ _____ _____    ______ ____
ROOT
ATOM      1  O   UNL     1       0.091   1.449 -20.769  0.00  0.00    -0.287 OA
ATOM      2  C   UNL     1      -0.299   1.977 -21.892  0.00  0.00    +0.195 C 
ATOM      3  C   UNL     1      -1.537   2.343 -22.043  0.00  0.00    +0.037 A 
ATOM      4  C   UNL     1      -2.386   2.181 -21.072  0.00  0.00    +0.012 A 
ATOM      5  C   UNL     1      -3.624   2.547 -21.223  0.00  0.00    +0.004 A 
ATOM      6  C   UNL     1      -4.013   3.075 -22.346  0.00  0.00    +0.046 A 
ATOM      7  C   UNL     1      -3.165   3.236 -23.317  0.00  0.00    +0.128 A 
ATOM      8  C   UNL     1      -1.926   2.870 -23.166  0.00  0.00    +0.075 A 
ATOM      9  C   UNL     1      -1.077   3.032 -24.137  0.00  0.00    +0.202 C 
ATOM     10  C   UNL     1       0.161   2.666 -23.985  0.00  0.00    +0.075 A 
ATOM     11  C   UNL     1       1.009   2.828 -24.956  0.00  0.00    +0.129 A 
ATOM     12  C   UNL     1       2.248   2.462 -24.805  0.00  0.00    +0.052 A 
ATOM     13  C   UNL     1       2.637   1.934 -23.683  0.00  0.00    -0.018 A 
ATOM     14  C   UNL     1       1.788   1.772 -22.711  0.00  0.00    +0.018 A 
ATOM     15  O   UNL     1      -1.467   3.560 -25.259  0.00  0.00    -0.286 OA
ATOM     16  C   UNL     1       0.550   2.138 -22.863  0.00  0.00    +0.037 A 
ENDROOT
BRANCH   7  17
ATOM     17  O   UNL     1      -3.554   3.764 -24.439  0.00  0.00    -0.506 OA
ATOM     18  H   UNL     1      -4.380   4.205 -24.488  0.00  0.00    +0.292 HD
ENDBRANCH   7  17
BRANCH  11  19
ATOM     19  O   UNL     1       0.621   3.355 -26.079  0.00  0.00    -0.506 OA
ATOM     20  H   UNL     1       1.070   3.147 -26.874  0.00  0.00    +0.292 HD
ENDBRANCH  11  19
BRANCH  13  21
ATOM     21  C   UNL     1       3.875   1.568 -23.531  0.00  0.00    +0.191 C 
BRANCH  21  22
ATOM     22  O   UNL     1       4.808   2.116 -24.252  0.00  0.00    -0.390 OA
ATOM     23  H   UNL     1       4.548   2.097 -25.187  0.00  0.00    +0.210 HD
ENDBRANCH  21  22
ENDBRANCH  13  21
TORSDOF 4
ENDMDL
MODEL 6
REMARK VINA RESULT:    -8.774      1.242      5.968
REMARK INTER + INTRA:         -10.120
REMARK INTER:                 -10.061
REMARK INTRA:                  -0.059
REMARK UNBOUND:                -0.064
REMARK  Name = ZINC000004098644
REMARK  4 active torsions:
REMARK  status: ('A' for Active; 'I' for Inactive)
REMARK    1  A    between atoms: C_7  and  O_8
REMARK    2  A    between atoms: C_13  and  O_14
REMARK    3  A    between atoms: C_16  and  C_17
REMARK    4  A    between atoms: C_17  and  O_18
REMARK                            x       y       z     vdW  Elec       q    Type
REMARK                         _______ _______ _______ _____ _____    ______ ____
ROOT
ATOM      1  O   UNL     1       1.021   3.920 -25.588  0.00  0.00    -0.287 OA
ATOM      2  C   UNL     1       0.644   3.361 -24.477  0.00  0.00    +0.195 C 
ATOM      3  C   UNL     1       1.530   2.878 -23.658  0.00  0.00    +0.037 A 
ATOM      4  C   UNL     1       2.795   2.954 -23.950  0.00  0.00    +0.012 A 
ATOM      5  C   UNL     1       3.682   2.471 -23.131  0.00  0.00    +0.004 A 
ATOM      6  C   UNL     1       3.304   1.912 -22.020  0.00  0.00    +0.046 A 
ATOM      7  C   UNL     1       2.040   1.836 -21.728  0.00  0.00    +0.128 A 
ATOM      8  C   UNL     1       1.153   2.319 -22.547  0.00  0.00    +0.075 A 
ATOM      9  C   UNL     1      -0.111   2.242 -22.254  0.00  0.00    +0.202 C 
ATOM     10  C   UNL     1      -0.998   2.725 -23.073  0.00  0.00    +0.075 A 
ATOM     11  C   UNL     1      -2.262   2.649 -22.780  0.00  0.00    +0.129 A 
ATOM     12  C   UNL     1      -3.149   3.132 -23.599  0.00  0.00    +0.052 A 
ATOM     13  C   UNL     1      -2.772   3.691 -24.711  0.00  0.00    -0.018 A 
ATOM     14  C   UNL     1      -1.507   3.767 -25.003  0.00  0.00    +0.018 A 
ATOM     15  O   UNL     1      -0.489   1.683 -21.143  0.00  0.00    -0.286 OA
ATOM     16  C   UNL     1      -0.620   3.284 -24.184  0.00  0.00    +0.037 A 
ENDROOT
BRANCH   7  17
ATOM     17  O   UNL     1       1.663   1.276 -20.616  0.00  0.00    -0.506 OA
ATOM     18  H   UNL     1       0.885   1.571 -20.184  0.00  0.00    +0.292 HD
ENDBRANCH   7  17
BRANCH  11  19
ATOM     19  O   UNL     1      -2.640   2.090 -21.669  0.00  0.00    -0.506 OA
ATOM     20  H   UNL     1      -3.021   1.234 -21.682  0.00  0.00    +0.292 HD
ENDBRANCH  11  19
BRANCH  13  21
ATOM     21  C   UNL     1      -3.658   4.174 -25.529  0.00  0.00    +0.191 C 
BRANCH  21  22
ATOM     22  O   UNL     1      -4.181   5.343 -25.306  0.00  0.00    -0.390 OA
ATOM     23  H   UNL     1      -4.878   5.515 -25.959  0.00  0.00    +0.210 HD
ENDBRANCH  21  22
ENDBRANCH  13  21
TORSDOF 4
ENDMDL
MODEL 7
REMARK VINA RESULT:    -8.655      1.170      5.051
REMARK INTER + INTRA:          -9.984
REMARK INTER:                  -9.925
REMARK INTRA:                  -0.059
REMARK UNBOUND:                -0.064
REMARK  Name = ZINC000004098644
REMARK  4 active torsions:
REMARK  status: ('A' for Active; 'I' for Inactive)
REMARK    1  A    between atoms: C_7  and  O_8
REMARK    2  A    between atoms: C_13  and  O_14
REMARK    3  A    between atoms: C_16  and  C_17
REMARK    4  A    between atoms: C_17  and  O_18
REMARK                            x       y       z     vdW  Elec       q    Type
REMARK                         _______ _______ _______ _____ _____    ______ ____
ROOT
ATOM      1  O   UNL     1      -2.383   2.539 -20.855  0.00  0.00    -0.287 OA
ATOM      2  C   UNL     1      -1.611   2.592 -21.899  0.00  0.00    +0.195 C 
ATOM      3  C   UNL     1      -0.370   2.214 -21.810  0.00  0.00    +0.037 A 
ATOM      4  C   UNL     1       0.098   1.782 -20.676  0.00  0.00    +0.012 A 
ATOM      5  C   UNL     1       1.339   1.404 -20.588  0.00  0.00    +0.004 A 
ATOM      6  C   UNL     1       2.111   1.458 -21.632  0.00  0.00    +0.046 A 
ATOM      7  C   UNL     1       1.643   1.889 -22.765  0.00  0.00    +0.128 A 
ATOM      8  C   UNL     1       0.402   2.268 -22.854  0.00  0.00    +0.075 A 
ATOM      9  C   UNL     1      -0.066   2.700 -23.987  0.00  0.00    +0.202 C 
ATOM     10  C   UNL     1      -1.306   3.078 -24.076  0.00  0.00    +0.075 A 
ATOM     11  C   UNL     1      -1.774   3.509 -25.209  0.00  0.00    +0.129 A 
ATOM     12  C   UNL     1      -3.015   3.888 -25.299  0.00  0.00    +0.052 A 
ATOM     13  C   UNL     1      -3.788   3.834 -24.255  0.00  0.00    -0.018 A 
ATOM     14  C   UNL     1      -3.319   3.402 -23.121  0.00  0.00    +0.018 A 
ATOM     15  O   UNL     1       0.707   2.753 -25.032  0.00  0.00    -0.286 OA
ATOM     16  C   UNL     1      -2.079   3.024 -23.032  0.00  0.00    +0.037 A 
ENDROOT
BRANCH   7  17
ATOM     17  O   UNL     1       2.416   1.943 -23.809  0.00  0.00    -0.506 OA
ATOM     18  H   UNL     1       2.090   2.291 -24.615  0.00  0.00    +0.292 HD
ENDBRANCH   7  17
BRANCH  11  19
ATOM     19  O   UNL     1      -1.002   3.563 -26.254  0.00  0.00    -0.506 OA
ATOM     20  H   UNL     1      -0.904   2.810 -26.803  0.00  0.00    +0.292 HD
ENDBRANCH  11  19
BRANCH  13  21
ATOM     21  C   UNL     1      -5.028   4.212 -24.343  0.00  0.00    +0.191 C 
BRANCH  21  22
ATOM     22  O   UNL     1      -5.313   5.424 -24.719  0.00  0.00    -0.390 OA
ATOM     23  H   UNL     1      -6.253   5.600 -24.556  0.00  0.00    +0.210 HD
ENDBRANCH  21  22
ENDBRANCH  13  21
TORSDOF 4
ENDMDL
MODEL 8
REMARK VINA RESULT:    -8.379      2.686      4.830
REMARK INTER + INTRA:          -9.667
REMARK INTER:                  -9.604
REMARK INTRA:                  -0.064
REMARK UNBOUND:                -0.064
REMARK  Name = ZINC000004098644
REMARK  4 active torsions:
REMARK  status: ('A' for Active; 'I' for Inactive)
REMARK    1  A    between atoms: C_7  and  O_8
REMARK    2  A    between atoms: C_13  and  O_14
REMARK    3  A    between atoms: C_16  and  C_17
REMARK    4  A    between atoms: C_17  and  O_18
REMARK                            x       y       z     vdW  Elec       q    Type
REMARK                         _______ _______ _______ _____ _____    ______ ____
ROOT
ATOM      1  O   UNL     1       2.599   5.399 -23.609  0.00  0.00    -0.287 OA
ATOM      2  C   UNL     1       2.193   4.219 -23.247  0.00  0.00    +0.195 C 
ATOM      3  C   UNL     1       0.922   3.949 -23.216  0.00  0.00    +0.037 A 
ATOM      4  C   UNL     1       0.056   4.861 -23.548  0.00  0.00    +0.012 A 
ATOM      5  C   UNL     1      -1.216   4.591 -23.518  0.00  0.00    +0.004 A 
ATOM      6  C   UNL     1      -1.622   3.411 -23.156  0.00  0.00    +0.046 A 
ATOM      7  C   UNL     1      -0.756   2.500 -22.824  0.00  0.00    +0.128 A 
ATOM      8  C   UNL     1       0.516   2.769 -22.854  0.00  0.00    +0.075 A 
ATOM      9  C   UNL     1       1.381   1.857 -22.522  0.00  0.00    +0.202 C 
ATOM     10  C   UNL     1       2.652   2.127 -22.552  0.00  0.00    +0.075 A 
ATOM     11  C   UNL     1       3.517   1.216 -22.220  0.00  0.00    +0.129 A 
ATOM     12  C   UNL     1       4.790   1.485 -22.251  0.00  0.00    +0.052 A 
ATOM     13  C   UNL     1       5.196   2.665 -22.613  0.00  0.00    -0.018 A 
ATOM     14  C   UNL     1       4.329   3.577 -22.945  0.00  0.00    +0.018 A 
ATOM     15  O   UNL     1       0.975   0.677 -22.160  0.00  0.00    -0.286 OA
ATOM     16  C   UNL     1       3.058   3.307 -22.915  0.00  0.00    +0.037 A 
ENDROOT
BRANCH   7  17
ATOM     17  O   UNL     1      -1.162   1.319 -22.461  0.00  0.00    -0.506 OA
ATOM     18  H   UNL     1      -1.195   0.622 -23.087  0.00  0.00    +0.292 HD
ENDBRANCH   7  17
BRANCH  11  19
ATOM     19  O   UNL     1       3.112   0.035 -21.858  0.00  0.00    -0.506 OA
ATOM     20  H   UNL     1       2.216  -0.100 -21.620  0.00  0.00    +0.292 HD
ENDBRANCH  11  19
BRANCH  13  21
ATOM     21  C   UNL     1       6.467   2.935 -22.644  0.00  0.00    +0.191 C 
BRANCH  21  22
ATOM     22  O   UNL     1       7.323   2.001 -22.936  0.00  0.00    -0.390 OA
ATOM     23  H   UNL     1       6.905   1.352 -23.525  0.00  0.00    +0.210 HD
ENDBRANCH  21  22
ENDBRANCH  13  21
TORSDOF 4
ENDMDL
