MODEL 1
REMARK VINA RESULT:   -11.367      0.000      0.000
REMARK INTER + INTRA:         -12.144
REMARK INTER:                 -12.024
REMARK INTRA:                  -0.120
REMARK UNBOUND:                -0.112
REMARK  Name = ZINC000096316378
REMARK  4 active torsions:
REMARK  status: ('A' for Active; 'I' for Inactive)
REMARK    1  A    between atoms: C_1  and  O_2
REMARK    2  A    between atoms: O_2  and  C_3
REMARK    3  A    between atoms: C_10  and  C_11
REMARK    4  A    between atoms: N_19  and  C_20
REMARK                            x       y       z     vdW  Elec       q    Type
REMARK                         _______ _______ _______ _____ _____    ______ ____
ROOT
ATOM      1  C   UNL     1       1.264   1.942 -22.717  0.00  0.00    +0.162 A 
ATOM      2  C   UNL     1       1.101   1.530 -21.531  0.00  0.00    +0.050 A 
ATOM      3  C   UNL     1      -0.027   1.582 -20.991  0.00  0.00    +0.008 A 
ATOM      4  C   UNL     1      -1.005   2.043 -21.627  0.00  0.00    -0.034 A 
ATOM      5  C   UNL     1      -0.862   2.457 -22.809  0.00  0.00    +0.016 A 
ATOM      6  C   UNL     1      -1.838   2.917 -23.442  0.00  0.00    +0.074 C 
ATOM      7  C   UNL     1      -2.873   3.458 -24.257  0.00  0.00    +0.071 C 
ATOM      8  C   UNL     1      -4.157   3.529 -23.675  0.00  0.00    +0.133 C 
ATOM      9  N   UNL     1      -4.300   3.061 -22.351  0.00  0.00    +0.239 N 
ATOM     10  H   UNL     1      -5.207   3.091 -21.887  0.00  0.00    +0.204 HD
ATOM     11  C   UNL     1      -5.402   3.088 -21.761  0.00  0.00    +0.191 C 
ATOM     12  C   UNL     1      -3.127   2.557 -21.717  0.00  0.00    +0.096 C 
ATOM     13  C   UNL     1      -2.967   2.969 -22.904  0.00  0.00    -0.006 C 
ATOM     14  C   UNL     1      -3.953   3.433 -23.544  0.00  0.00    +0.025 C 
ATOM     15  C   UNL     1      -3.802   3.843 -24.718  0.00  0.00    +0.041 C 
ATOM     16 CL   UNL     1      -4.779   4.302 -25.348  0.00  0.00    -0.084 Cl
ATOM     17  C   UNL     1      -2.664   3.793 -25.268  0.00  0.00    +0.041 C 
ATOM     18  C   UNL     1      -1.687   3.333 -24.635  0.00  0.00    +0.141 C 
ATOM     19  C   UNL     1      -1.258   3.663 -25.765  0.00  0.00    +0.061 C 
ATOM     20  O   UNL     1      -0.215   3.004 -24.646  0.00  0.00    -0.477 OA
ATOM     21  C   UNL     1      -2.154   2.096 -21.081  0.00  0.00    +0.094 C 
ATOM     22  C   UNL     1       0.275   2.407 -23.357  0.00  0.00    +0.168 A 
ENDROOT
BRANCH   1  24
ATOM     23  C   UNL     1       3.038   0.816 -23.254  0.00  0.00    +0.277 C 
ATOM     24  O   UNL     1       2.393   1.889 -23.253  0.00  0.00    -0.491 OA
ENDBRANCH   1  24
TORSDOF 1
ENDMDL
MODEL 2
REMARK VINA RESULT:   -10.893      2.632      5.468
REMARK INTER + INTRA:         -11.643
REMARK INTER:                 -11.604
REMARK INTRA:                  -0.038
REMARK UNBOUND:                -0.112
REMARK  Name = ZINC000096316378
REMARK  4 active torsions:
REMARK  status: ('A' for Active; 'I' for Inactive)
REMARK    1  A    between atoms: C_1  and  O_2
REMARK    2  A    between atoms: O_2  and  C_3
REMARK    3  A    between atoms: C_10  and  C_11
REMARK    4  A    between atoms: N_19  and  C_20
REMARK                            x       y       z     vdW  Elec       q    Type
REMARK                         _______ _______ _______ _____ _____    ______ ____
ROOT
ATOM      1  C   UNL     1      -4.987   3.701 -23.184  0.00  0.00    +0.162 A 
ATOM      2  C   UNL     1      -5.155   4.071 -24.383  0.00  0.00    +0.050 A 
ATOM      3  C   UNL     1      -4.196   4.066 -25.189  0.00  0.00    +0.008 A 
ATOM      4  C   UNL     1      -3.061   3.693 -24.807  0.00  0.00    -0.034 A 
ATOM      5  C   UNL     1      -2.875   3.322 -23.617  0.00  0.00    +0.016 A 
ATOM      6  C   UNL     1      -1.742   2.950 -23.239  0.00  0.00    +0.074 C 
ATOM      7  C   UNL     1      -0.501   2.508 -22.697  0.00  0.00    +0.071 C 
ATOM      8  C   UNL     1       0.598   2.492 -23.582  0.00  0.00    +0.133 C 
ATOM      9  N   UNL     1       0.373   2.910 -24.911  0.00  0.00    +0.239 N 
ATOM     10  H   UNL     1       1.136   2.916 -25.588  0.00  0.00    +0.204 HD
ATOM     11  C   UNL     1       1.292   2.926 -25.758  0.00  0.00    +0.191 C 
ATOM     12  C   UNL     1      -0.953   3.314 -25.241  0.00  0.00    +0.096 C 
ATOM     13  C   UNL     1      -0.782   2.944 -24.043  0.00  0.00    -0.006 C 
ATOM     14  C   UNL     1       0.362   2.569 -23.660  0.00  0.00    +0.025 C 
ATOM     15  C   UNL     1       0.539   2.202 -22.475  0.00  0.00    +0.041 C 
ATOM     16 CL   UNL     1       1.672   1.831 -22.100  0.00  0.00    -0.084 Cl
ATOM     17  C   UNL     1      -0.427   2.205 -21.658  0.00  0.00    +0.041 C 
ATOM     18  C   UNL     1      -1.560   2.577 -22.036  0.00  0.00    +0.141 C 
ATOM     19  C   UNL     1      -1.671   2.270 -20.826  0.00  0.00    +0.061 C 
ATOM     20  O   UNL     1      -3.003   2.815 -21.663  0.00  0.00    -0.477 OA
ATOM     21  C   UNL     1      -2.084   3.686 -25.623  0.00  0.00    +0.094 C 
ATOM     22  C   UNL     1      -3.839   3.325 -22.802  0.00  0.00    +0.168 A 
ENDROOT
BRANCH   1  24
ATOM     23  C   UNL     1      -6.259   2.663 -21.767  0.00  0.00    +0.277 C 
ATOM     24  O   UNL     1      -5.948   3.708 -22.382  0.00  0.00    -0.491 OA
ENDBRANCH   1  24
TORSDOF 1
ENDMDL
MODEL 3
REMARK VINA RESULT:   -10.817      1.476      2.860
REMARK INTER + INTRA:         -11.562
REMARK INTER:                 -11.423
REMARK INTRA:                  -0.139
REMARK UNBOUND:                -0.112
REMARK  Name = ZINC000096316378
REMARK  4 active torsions:
REMARK  status: ('A' for Active; 'I' for Inactive)
REMARK    1  A    between atoms: C_1  and  O_2
REMARK    2  A    between atoms: O_2  and  C_3
REMARK    3  A    between atoms: C_10  and  C_11
REMARK    4  A    between atoms: N_19  and  C_20
REMARK                            x       y       z     vdW  Elec       q    Type
REMARK                         _______ _______ _______ _____ _____    ______ ____
ROOT
ATOM      1  C   UNL     1       1.202   2.581 -22.854  0.00  0.00    +0.162 A 
ATOM      2  C   UNL     1       1.545   2.745 -24.061  0.00  0.00    +0.050 A 
ATOM      3  C   UNL     1       0.690   3.021 -24.932  0.00  0.00    +0.008 A 
ATOM      4  C   UNL     1      -0.517   3.136 -24.610  0.00  0.00    -0.034 A 
ATOM      5  C   UNL     1      -0.878   2.977 -23.413  0.00  0.00    +0.016 A 
ATOM      6  C   UNL     1      -2.082   3.092 -23.093  0.00  0.00    +0.074 C 
ATOM      7  C   UNL     1      -3.419   3.199 -22.614  0.00  0.00    +0.071 C 
ATOM      8  C   UNL     1      -4.405   3.509 -23.574  0.00  0.00    +0.133 C 
ATOM      9  N   UNL     1      -3.984   3.685 -24.910  0.00  0.00    +0.239 N 
ATOM     10  H   UNL     1      -4.660   3.910 -25.639  0.00  0.00    +0.204 HD
ATOM     11  C   UNL     1      -4.794   3.962 -25.821  0.00  0.00    +0.191 C 
ATOM     12  C   UNL     1      -2.591   3.532 -25.170  0.00  0.00    +0.096 C 
ATOM     13  C   UNL     1      -2.939   3.368 -23.963  0.00  0.00    -0.006 C 
ATOM     14  C   UNL     1      -4.155   3.485 -23.640  0.00  0.00    +0.025 C 
ATOM     15  C   UNL     1      -4.505   3.325 -22.448  0.00  0.00    +0.041 C 
ATOM     16 CL   UNL     1      -5.709   3.441 -22.131  0.00  0.00    -0.084 Cl
ATOM     17  C   UNL     1      -3.645   3.046 -21.564  0.00  0.00    +0.041 C 
ATOM     18  C   UNL     1      -2.440   2.930 -21.883  0.00  0.00    +0.141 C 
ATOM     19  C   UNL     1      -2.504   2.721 -20.649  0.00  0.00    +0.061 C 
ATOM     20  O   UNL     1      -1.031   2.647 -21.423  0.00  0.00    -0.477 OA
ATOM     21  C   UNL     1      -1.389   3.417 -25.493  0.00  0.00    +0.094 C 
ATOM     22  C   UNL     1      -0.018   2.698 -22.531  0.00  0.00    +0.168 A 
ENDROOT
BRANCH   1  24
ATOM     23  C   UNL     1       2.469   1.128 -21.859  0.00  0.00    +0.277 C 
ATOM     24  O   UNL     1       2.059   2.305 -21.986  0.00  0.00    -0.491 OA
ENDBRANCH   1  24
TORSDOF 1
ENDMDL
MODEL 4
REMARK VINA RESULT:   -10.532      2.696      5.116
REMARK INTER + INTRA:         -11.260
REMARK INTER:                 -11.151
REMARK INTRA:                  -0.109
REMARK UNBOUND:                -0.112
REMARK  Name = ZINC000096316378
REMARK  4 active torsions:
REMARK  status: ('A' for Active; 'I' for Inactive)
REMARK    1  A    between atoms: C_1  and  O_2
REMARK    2  A    between atoms: O_2  and  C_3
REMARK    3  A    between atoms: C_10  and  C_11
REMARK    4  A    between atoms: N_19  and  C_20
REMARK                            x       y       z     vdW  Elec       q    Type
REMARK                         _______ _______ _______ _____ _____    ______ ____
ROOT
ATOM      1  C   UNL     1      -2.974   3.382 -23.243  0.00  0.00    +0.162 A 
ATOM      2  C   UNL     1      -3.321   2.812 -22.168  0.00  0.00    +0.050 A 
ATOM      3  C   UNL     1      -2.470   2.241 -21.449  0.00  0.00    +0.008 A 
ATOM      4  C   UNL     1      -1.264   2.232 -21.794  0.00  0.00    -0.034 A 
ATOM      5  C   UNL     1      -0.899   2.794 -22.862  0.00  0.00    +0.016 A 
ATOM      6  C   UNL     1       0.304   2.784 -23.205  0.00  0.00    +0.074 C 
ATOM      7  C   UNL     1       1.640   2.837 -23.694  0.00  0.00    +0.071 C 
ATOM      8  C   UNL     1       2.622   2.201 -22.904  0.00  0.00    +0.133 C 
ATOM      9  N   UNL     1       2.197   1.577 -21.712  0.00  0.00    +0.239 N 
ATOM     10  H   UNL     1       2.869   1.105 -21.108  0.00  0.00    +0.204 HD
ATOM     11  C   UNL     1       3.002   0.992 -20.955  0.00  0.00    +0.191 C 
ATOM     12  C   UNL     1       0.806   1.645 -21.412  0.00  0.00    +0.096 C 
ATOM     13  C   UNL     1       1.156   2.214 -22.487  0.00  0.00    -0.006 C 
ATOM     14  C   UNL     1       2.372   2.204 -22.834  0.00  0.00    +0.025 C 
ATOM     15  C   UNL     1       2.725   2.765 -23.896  0.00  0.00    +0.041 C 
ATOM     16 CL   UNL     1       3.928   2.754 -24.236  0.00  0.00    -0.084 Cl
ATOM     17  C   UNL     1       1.869   3.343 -24.626  0.00  0.00    +0.041 C 
ATOM     18  C   UNL     1       0.665   3.354 -24.284  0.00  0.00    +0.141 C 
ATOM     19  C   UNL     1       0.733   3.977 -25.368  0.00  0.00    +0.061 C 
ATOM     20  O   UNL     1      -0.740   3.793 -24.613  0.00  0.00    -0.477 OA
ATOM     21  C   UNL     1      -0.396   1.652 -21.065  0.00  0.00    +0.094 C 
ATOM     22  C   UNL     1      -1.755   3.371 -23.590  0.00  0.00    +0.168 A 
ENDROOT
BRANCH   1  24
ATOM     23  C   UNL     1      -5.044   3.860 -23.679  0.00  0.00    +0.277 C 
ATOM     24  O   UNL     1      -3.827   3.951 -23.959  0.00  0.00    -0.491 OA
ENDBRANCH   1  24
TORSDOF 1
ENDMDL
MODEL 5
REMARK VINA RESULT:   -10.339      2.409      4.695
REMARK INTER + INTRA:         -11.056
REMARK INTER:                 -11.346
REMARK INTRA:                   0.290
REMARK UNBOUND:                -0.112
REMARK  Name = ZINC000096316378
REMARK  4 active torsions:
REMARK  status: ('A' for Active; 'I' for Inactive)
REMARK    1  A    between atoms: C_1  and  O_2
REMARK    2  A    between atoms: O_2  and  C_3
REMARK    3  A    between atoms: C_10  and  C_11
REMARK    4  A    between atoms: N_19  and  C_20
REMARK                            x       y       z     vdW  Elec       q    Type
REMARK                         _______ _______ _______ _____ _____    ______ ____
ROOT
ATOM      1  C   UNL     1      -4.430   3.386 -22.852  0.00  0.00    +0.162 A 
ATOM      2  C   UNL     1      -4.544   2.997 -21.653  0.00  0.00    +0.050 A 
ATOM      3  C   UNL     1      -3.549   2.562 -21.029  0.00  0.00    +0.008 A 
ATOM      4  C   UNL     1      -2.431   2.510 -21.595  0.00  0.00    -0.034 A 
ATOM      5  C   UNL     1      -2.298   2.893 -22.789  0.00  0.00    +0.016 A 
ATOM      6  C   UNL     1      -1.182   2.840 -23.351  0.00  0.00    +0.074 C 
ATOM      7  C   UNL     1       0.035   2.826 -24.091  0.00  0.00    +0.071 C 
ATOM      8  C   UNL     1       1.174   2.341 -23.414  0.00  0.00    +0.133 C 
ATOM      9  N   UNL     1       1.009   1.916 -22.078  0.00  0.00    +0.239 N 
ATOM     10  H   UNL     1       1.802   1.558 -21.548  0.00  0.00    +0.204 HD
ATOM     11  C   UNL     1       1.967   1.473 -21.408  0.00  0.00    +0.191 C 
ATOM     12  C   UNL     1      -0.303   2.017 -21.530  0.00  0.00    +0.096 C 
ATOM     13  C   UNL     1      -0.186   2.405 -22.729  0.00  0.00    -0.006 C 
ATOM     14  C   UNL     1       0.942   2.352 -23.298  0.00  0.00    +0.025 C 
ATOM     15  C   UNL     1       1.065   2.734 -24.484  0.00  0.00    +0.041 C 
ATOM     16 CL   UNL     1       2.181   2.681 -25.044  0.00  0.00    -0.084 Cl
ATOM     17  C   UNL     1       0.062   3.175 -25.118  0.00  0.00    +0.041 C 
ATOM     18  C   UNL     1      -1.054   3.228 -24.556  0.00  0.00    +0.141 C 
ATOM     19  C   UNL     1      -1.219   3.665 -25.719  0.00  0.00    +0.061 C 
ATOM     20  O   UNL     1      -2.514   3.591 -24.675  0.00  0.00    -0.477 OA
ATOM     21  C   UNL     1      -1.417   2.068 -20.964  0.00  0.00    +0.094 C 
ATOM     22  C   UNL     1      -3.299   3.332 -23.421  0.00  0.00    +0.168 A 
ENDROOT
BRANCH   1  24
ATOM     23  C   UNL     1      -5.276   4.439 -24.549  0.00  0.00    +0.277 C 
ATOM     24  O   UNL     1      -5.427   3.820 -23.471  0.00  0.00    -0.491 OA
ENDBRANCH   1  24
TORSDOF 1
ENDMDL
MODEL 6
REMARK VINA RESULT:    -9.823      2.011      3.719
REMARK INTER + INTRA:         -10.509
REMARK INTER:                 -10.374
REMARK INTRA:                  -0.135
REMARK UNBOUND:                -0.112
REMARK  Name = ZINC000096316378
REMARK  4 active torsions:
REMARK  status: ('A' for Active; 'I' for Inactive)
REMARK    1  A    between atoms: C_1  and  O_2
REMARK    2  A    between atoms: O_2  and  C_3
REMARK    3  A    between atoms: C_10  and  C_11
REMARK    4  A    between atoms: N_19  and  C_20
REMARK                            x       y       z     vdW  Elec       q    Type
REMARK                         _______ _______ _______ _____ _____    ______ ____
ROOT
ATOM      1  C   UNL     1       3.647   1.902 -22.298  0.00  0.00    +0.162 A 
ATOM      2  C   UNL     1       4.170   2.234 -23.402  0.00  0.00    +0.050 A 
ATOM      3  C   UNL     1       3.453   2.613 -24.356  0.00  0.00    +0.008 A 
ATOM      4  C   UNL     1       2.208   2.666 -24.220  0.00  0.00    -0.034 A 
ATOM      5  C   UNL     1       1.668   2.340 -23.128  0.00  0.00    +0.016 A 
ATOM      6  C   UNL     1       0.426   2.394 -22.994  0.00  0.00    +0.074 C 
ATOM      7  C   UNL     1      -0.972   2.414 -22.726  0.00  0.00    +0.071 C 
ATOM      8  C   UNL     1      -1.806   2.838 -23.783  0.00  0.00    +0.133 C 
ATOM      9  N   UNL     1      -1.187   3.199 -24.999  0.00  0.00    +0.239 N 
ATOM     10  H   UNL     1      -1.747   3.511 -25.792  0.00  0.00    +0.204 HD
ATOM     11  C   UNL     1      -1.852   3.585 -25.985  0.00  0.00    +0.191 C 
ATOM     12  C   UNL     1       0.234   3.103 -25.049  0.00  0.00    +0.096 C 
ATOM     13  C   UNL     1      -0.293   2.773 -23.946  0.00  0.00    -0.006 C 
ATOM     14  C   UNL     1      -1.548   2.826 -23.810  0.00  0.00    +0.025 C 
ATOM     15  C   UNL     1      -2.076   2.501 -22.722  0.00  0.00    +0.041 C 
ATOM     16 CL   UNL     1      -3.317   2.555 -22.590  0.00  0.00    -0.084 Cl
ATOM     17  C   UNL     1      -1.355   2.117 -21.755  0.00  0.00    +0.041 C 
ATOM     18  C   UNL     1      -0.112   2.063 -21.889  0.00  0.00    +0.141 C 
ATOM     19  C   UNL     1      -0.362   1.688 -20.720  0.00  0.00    +0.061 C 
ATOM     20  O   UNL     1       1.216   1.742 -21.249  0.00  0.00    -0.477 OA
ATOM     21  C   UNL     1       1.476   3.051 -25.187  0.00  0.00    +0.094 C 
ATOM     22  C   UNL     1       2.388   1.957 -22.163  0.00  0.00    +0.168 A 
ENDROOT
BRANCH   1  24
ATOM     23  C   UNL     1       4.406   0.313 -21.033  0.00  0.00    +0.277 C 
ATOM     24  O   UNL     1       4.367   1.524 -21.348  0.00  0.00    -0.491 OA
ENDBRANCH   1  24
TORSDOF 1
ENDMDL
MODEL 7
REMARK VINA RESULT:    -9.800      3.728      6.574
REMARK INTER + INTRA:         -10.485
REMARK INTER:                 -10.376
REMARK INTRA:                  -0.109
REMARK UNBOUND:                -0.112
REMARK  Name = ZINC000096316378
REMARK  4 active torsions:
REMARK  status: ('A' for Active; 'I' for Inactive)
REMARK    1  A    between atoms: C_1  and  O_2
REMARK    2  A    between atoms: O_2  and  C_3
REMARK    3  A    between atoms: C_10  and  C_11
REMARK    4  A    between atoms: N_19  and  C_20
REMARK                            x       y       z     vdW  Elec       q    Type
REMARK                         _______ _______ _______ _____ _____    ______ ____
ROOT
ATOM      1  C   UNL     1      -0.970   3.169 -23.331  0.00  0.00    +0.162 A 
ATOM      2  C   UNL     1      -1.055   4.410 -23.561  0.00  0.00    +0.050 A 
ATOM      3  C   UNL     1      -0.028   5.126 -23.571  0.00  0.00    +0.008 A 
ATOM      4  C   UNL     1       1.094   4.613 -23.350  0.00  0.00    -0.034 A 
ATOM      5  C   UNL     1       1.199   3.378 -23.118  0.00  0.00    +0.016 A 
ATOM      6  C   UNL     1       2.320   2.867 -22.898  0.00  0.00    +0.074 C 
ATOM      7  C   UNL     1       3.538   2.178 -22.635  0.00  0.00    +0.071 C 
ATOM      8  C   UNL     1       4.713   2.959 -22.639  0.00  0.00    +0.133 C 
ATOM      9  N   UNL     1       4.579   4.340 -22.900  0.00  0.00    +0.239 N 
ATOM     10  H   UNL     1       5.398   4.946 -22.913  0.00  0.00    +0.204 HD
ATOM     11  C   UNL     1       5.569   5.103 -22.921  0.00  0.00    +0.191 C 
ATOM     12  C   UNL     1       3.259   4.823 -23.138  0.00  0.00    +0.096 C 
ATOM     13  C   UNL     1       3.348   3.581 -22.907  0.00  0.00    -0.006 C 
ATOM     14  C   UNL     1       4.480   3.065 -22.684  0.00  0.00    +0.025 C 
ATOM     15  C   UNL     1       4.575   1.837 -22.455  0.00  0.00    +0.041 C 
ATOM     16 CL   UNL     1       5.696   1.329 -22.235  0.00  0.00    -0.084 Cl
ATOM     17  C   UNL     1       3.540   1.110 -22.445  0.00  0.00    +0.041 C 
ATOM     18  C   UNL     1       2.419   1.620 -22.665  0.00  0.00    +0.141 C 
ATOM     19  C   UNL     1       2.223   0.398 -22.470  0.00  0.00    +0.061 C 
ATOM     20  O   UNL     1       0.932   1.399 -22.796  0.00  0.00    -0.477 OA
ATOM     21  C   UNL     1       2.141   5.337 -23.358  0.00  0.00    +0.094 C 
ATOM     22  C   UNL     1       0.166   2.652 -23.108  0.00  0.00    +0.168 A 
ENDROOT
BRANCH   1  24
ATOM     23  C   UNL     1      -3.087   2.921 -23.732  0.00  0.00    +0.277 C 
ATOM     24  O   UNL     1      -1.998   2.457 -23.322  0.00  0.00    -0.491 OA
ENDBRANCH   1  24
TORSDOF 1
ENDMDL
MODEL 8
REMARK VINA RESULT:    -8.975      2.932      4.461
REMARK INTER + INTRA:          -9.612
REMARK INTER:                  -9.479
REMARK INTRA:                  -0.133
REMARK UNBOUND:                -0.112
REMARK  Name = ZINC000096316378
REMARK  4 active torsions:
REMARK  status: ('A' for Active; 'I' for Inactive)
REMARK    1  A    between atoms: C_1  and  O_2
REMARK    2  A    between atoms: O_2  and  C_3
REMARK    3  A    between atoms: C_10  and  C_11
REMARK    4  A    between atoms: N_19  and  C_20
REMARK                            x       y       z     vdW  Elec       q    Type
REMARK                         _______ _______ _______ _____ _____    ______ ____
ROOT
ATOM      1  C   UNL     1       5.559   2.531 -22.381  0.00  0.00    +0.162 A 
ATOM      2  C   UNL     1       5.482   1.309 -22.060  0.00  0.00    +0.050 A 
ATOM      3  C   UNL     1       4.367   0.745 -21.972  0.00  0.00    +0.008 A 
ATOM      4  C   UNL     1       3.319   1.393 -22.203  0.00  0.00    -0.034 A 
ATOM      5  C   UNL     1       3.376   2.611 -22.524  0.00  0.00    +0.016 A 
ATOM      6  C   UNL     1       2.329   3.256 -22.754  0.00  0.00    +0.074 C 
ATOM      7  C   UNL     1       1.208   4.087 -23.039  0.00  0.00    +0.071 C 
ATOM      8  C   UNL     1      -0.062   3.479 -22.948  0.00  0.00    +0.133 C 
ATOM      9  N   UNL     1      -0.109   2.115 -22.587  0.00  0.00    +0.239 N 
ATOM     10  H   UNL     1      -1.003   1.631 -22.509  0.00  0.00    +0.204 HD
ATOM     11  C   UNL     1      -1.193   1.501 -22.484  0.00  0.00    +0.191 C 
ATOM     12  C   UNL     1       1.139   1.471 -22.346  0.00  0.00    +0.096 C 
ATOM     13  C   UNL     1       1.213   2.694 -22.667  0.00  0.00    -0.006 C 
ATOM     14  C   UNL     1       0.156   3.346 -22.900  0.00  0.00    +0.025 C 
ATOM     15  C   UNL     1       0.222   4.555 -23.218  0.00  0.00    +0.041 C 
ATOM     16 CL   UNL     1      -0.826   5.197 -23.448  0.00  0.00    -0.084 Cl
ATOM     17  C   UNL     1       1.346   5.129 -23.308  0.00  0.00    +0.041 C 
ATOM     18  C   UNL     1       2.393   4.485 -23.078  0.00  0.00    +0.141 C 
ATOM     19  C   UNL     1       2.748   5.650 -23.369  0.00  0.00    +0.061 C 
ATOM     20  O   UNL     1       3.900   4.506 -22.999  0.00  0.00    -0.477 OA
ATOM     21  C   UNL     1       2.184   0.823 -22.115  0.00  0.00    +0.094 C 
ATOM     22  C   UNL     1       4.498   3.183 -22.614  0.00  0.00    +0.168 A 
ENDROOT
BRANCH   1  24
ATOM     23  C   UNL     1       7.152   3.369 -23.591  0.00  0.00    +0.277 C 
ATOM     24  O   UNL     1       6.675   3.090 -22.467  0.00  0.00    -0.491 OA
ENDBRANCH   1  24
TORSDOF 1
ENDMDL
MODEL 9
REMARK VINA RESULT:    -8.695      3.092      4.981
REMARK INTER + INTRA:          -9.315
REMARK INTER:                  -9.203
REMARK INTRA:                  -0.112
REMARK UNBOUND:                -0.112
REMARK  Name = ZINC000096316378
REMARK  4 active torsions:
REMARK  status: ('A' for Active; 'I' for Inactive)
REMARK    1  A    between atoms: C_1  and  O_2
REMARK    2  A    between atoms: O_2  and  C_3
REMARK    3  A    between atoms: C_10  and  C_11
REMARK    4  A    between atoms: N_19  and  C_20
REMARK                            x       y       z     vdW  Elec       q    Type
REMARK                         _______ _______ _______ _____ _____    ______ ____
ROOT
ATOM      1  C   UNL     1       5.586   3.334 -22.798  0.00  0.00    +0.162 A 
ATOM      2  C   UNL     1       5.670   4.566 -23.075  0.00  0.00    +0.050 A 
ATOM      3  C   UNL     1       4.636   5.255 -23.224  0.00  0.00    +0.008 A 
ATOM      4  C   UNL     1       3.507   4.724 -23.098  0.00  0.00    -0.034 A 
ATOM      5  C   UNL     1       3.403   3.498 -22.822  0.00  0.00    +0.016 A 
ATOM      6  C   UNL     1       2.276   2.970 -22.696  0.00  0.00    +0.074 C 
ATOM      7  C   UNL     1       1.051   2.263 -22.530  0.00  0.00    +0.071 C 
ATOM      8  C   UNL     1      -0.133   3.014 -22.692  0.00  0.00    +0.133 C 
ATOM      9  N   UNL     1       0.001   4.385 -23.000  0.00  0.00    +0.239 N 
ATOM     10  H   UNL     1      -0.825   4.970 -23.126  0.00  0.00    +0.204 HD
ATOM     11  C   UNL     1      -0.997   5.122 -23.160  0.00  0.00    +0.191 C 
ATOM     12  C   UNL     1       1.328   4.890 -23.122  0.00  0.00    +0.096 C 
ATOM     13  C   UNL     1       1.240   3.658 -22.845  0.00  0.00    -0.006 C 
ATOM     14  C   UNL     1       0.102   3.123 -22.718  0.00  0.00    +0.025 C 
ATOM     15  C   UNL     1       0.008   1.905 -22.444  0.00  0.00    +0.041 C 
ATOM     16 CL   UNL     1      -1.120   1.380 -22.319  0.00  0.00    -0.084 Cl
ATOM     17  C   UNL     1       1.050   1.204 -22.293  0.00  0.00    +0.041 C 
ATOM     18  C   UNL     1       2.178   1.732 -22.418  0.00  0.00    +0.141 C 
ATOM     19  C   UNL     1       2.377   0.525 -22.148  0.00  0.00    +0.061 C 
ATOM     20  O   UNL     1       3.674   1.542 -22.384  0.00  0.00    -0.477 OA
ATOM     21  C   UNL     1       2.453   5.422 -23.248  0.00  0.00    +0.094 C 
ATOM     22  C   UNL     1       4.444   2.799 -22.671  0.00  0.00    +0.168 A 
ENDROOT
BRANCH   1  24
ATOM     23  C   UNL     1       7.673   2.960 -23.255  0.00  0.00    +0.277 C 
ATOM     24  O   UNL     1       6.622   2.648 -22.651  0.00  0.00    -0.491 OA
ENDBRANCH   1  24
TORSDOF 1
ENDMDL
