MODEL 1
REMARK VINA RESULT:   -13.233      0.000      0.000
REMARK INTER + INTRA:         -13.233
REMARK INTER:                 -13.233
REMARK INTRA:                   0.000
REMARK UNBOUND:                 0.000
REMARK  Name = ZINC000005359880
REMARK  2 active torsions:
REMARK  status: ('A' for Active; 'I' for Inactive)
REMARK    1  A    between atoms: C_1  and  C_2
REMARK    2  A    between atoms: C_14  and  C_15
REMARK                            x       y       z     vdW  Elec       q    Type
REMARK                         _______ _______ _______ _____ _____    ______ ____
ROOT
ATOM      1  C   UNL     1      -4.879   2.884 -21.654  0.00  0.00    +0.019 C 
ATOM      2  C   UNL     1      -4.006   3.135 -22.584  0.00  0.00    +0.029 C 
ATOM      3  C   UNL     1      -3.510   2.538 -21.540  0.00  0.00    +0.015 C 
ATOM      4  C   UNL     1      -2.244   2.248 -21.499  0.00  0.00    +0.005 C 
ATOM      5  C   UNL     1      -1.473   2.553 -22.500  0.00  0.00    +0.003 C 
ATOM      6  C   UNL     1      -1.969   3.150 -23.543  0.00  0.00    +0.001 C 
ATOM      7  C   UNL     1      -1.198   3.455 -24.545  0.00  0.00    +0.031 C 
ATOM      8  C   UNL     1       0.069   3.164 -24.502  0.00  0.00    -0.027 C 
ATOM      9  C   UNL     1       0.564   2.568 -23.459  0.00  0.00    -0.062 C 
ATOM     10  C   UNL     1       1.830   2.277 -23.416  0.00  0.00    +0.096 C 
ATOM     11  C   UNL     1       2.326   1.680 -22.373  0.00  0.00    +0.174 C 
ATOM     12  O   UNL     1       2.942   1.088 -21.394  0.00  0.00    -0.346 OA
ATOM     13  C   UNL     1       4.195   0.972 -21.718  0.00  0.00    +0.191 C 
ATOM     14  C   UNL     1       4.354   1.493 -22.898  0.00  0.00    +0.191 C 
ATOM     15  C   UNL     1       1.556   1.375 -21.372  0.00  0.00    +0.066 C 
ATOM     16  C   UNL     1       0.288   1.666 -21.414  0.00  0.00    +0.016 C 
ATOM     17  O   UNL     1       3.199   1.931 -23.304  0.00  0.00    -0.346 OA
ATOM     18  C   UNL     1      -0.207   2.262 -22.458  0.00  0.00    -0.008 C 
ATOM     19  C   UNL     1      -0.978   1.957 -21.457  0.00  0.00    +0.016 C 
ATOM     20  C   UNL     1      -5.212   3.528 -22.870  0.00  0.00    +0.139 C 
ATOM     21  O   UNL     1      -6.259   3.396 -22.113  0.00  0.00    -0.297 OA
ATOM     22  C   UNL     1      -5.186   4.076 -24.049  0.00  0.00    +0.075 C 
ATOM     23  C   UNL     1      -3.965   4.023 -24.491  0.00  0.00    +0.012 C 
ATOM     24  C   UNL     1      -3.235   3.441 -23.586  0.00  0.00    +0.006 C 
ENDROOT
TORSDOF 0
ENDMDL
MODEL 2
REMARK VINA RESULT:   -12.982      0.942      2.410
REMARK INTER + INTRA:         -12.982
REMARK INTER:                 -12.982
REMARK INTRA:                   0.000
REMARK UNBOUND:                 0.000
REMARK  Name = ZINC000005359880
REMARK  2 active torsions:
REMARK  status: ('A' for Active; 'I' for Inactive)
REMARK    1  A    between atoms: C_1  and  C_2
REMARK    2  A    between atoms: C_14  and  C_15
REMARK                            x       y       z     vdW  Elec       q    Type
REMARK                         _______ _______ _______ _____ _____    ______ ____
ROOT
ATOM      1  C   UNL     1      -3.686   4.493 -25.150  0.00  0.00    +0.019 C 
ATOM      2  C   UNL     1      -3.408   3.823 -24.072  0.00  0.00    +0.029 C 
ATOM      3  C   UNL     1      -2.387   4.012 -24.855  0.00  0.00    +0.015 C 
ATOM      4  C   UNL     1      -1.221   3.543 -24.525  0.00  0.00    +0.005 C 
ATOM      5  C   UNL     1      -1.074   2.885 -23.413  0.00  0.00    +0.003 C 
ATOM      6  C   UNL     1      -2.095   2.696 -22.631  0.00  0.00    +0.001 C 
ATOM      7  C   UNL     1      -1.949   2.038 -21.519  0.00  0.00    +0.031 C 
ATOM      8  C   UNL     1      -0.782   1.570 -21.190  0.00  0.00    -0.027 C 
ATOM      9  C   UNL     1       0.239   1.759 -21.972  0.00  0.00    -0.062 C 
ATOM     10  C   UNL     1       1.406   1.291 -21.643  0.00  0.00    +0.096 C 
ATOM     11  C   UNL     1       2.427   1.480 -22.425  0.00  0.00    +0.174 C 
ATOM     12  O   UNL     1       3.521   1.599 -23.116  0.00  0.00    -0.346 OA
ATOM     13  C   UNL     1       4.475   1.003 -22.465  0.00  0.00    +0.191 C 
ATOM     14  C   UNL     1       3.970   0.514 -21.372  0.00  0.00    +0.191 C 
ATOM     15  C   UNL     1       2.281   2.137 -23.537  0.00  0.00    +0.066 C 
ATOM     16  C   UNL     1       1.113   2.606 -23.866  0.00  0.00    +0.016 C 
ATOM     17  O   UNL     1       2.704   0.808 -21.346  0.00  0.00    -0.346 OA
ATOM     18  C   UNL     1       0.093   2.417 -23.084  0.00  0.00    -0.008 C 
ATOM     19  C   UNL     1      -0.054   3.074 -24.196  0.00  0.00    +0.016 C 
ATOM     20  C   UNL     1      -4.655   4.180 -24.167  0.00  0.00    +0.139 C 
ATOM     21  O   UNL     1      -5.184   4.854 -25.143  0.00  0.00    -0.297 OA
ATOM     22  C   UNL     1      -5.279   3.742 -23.113  0.00  0.00    +0.075 C 
ATOM     23  C   UNL     1      -4.419   3.115 -22.368  0.00  0.00    +0.012 C 
ATOM     24  C   UNL     1      -3.263   3.165 -22.960  0.00  0.00    +0.006 C 
ENDROOT
TORSDOF 0
ENDMDL
MODEL 3
REMARK VINA RESULT:   -12.249      0.923      6.404
REMARK INTER + INTRA:         -12.249
REMARK INTER:                 -12.249
REMARK INTRA:                   0.000
REMARK UNBOUND:                 0.000
REMARK  Name = ZINC000005359880
REMARK  2 active torsions:
REMARK  status: ('A' for Active; 'I' for Inactive)
REMARK    1  A    between atoms: C_1  and  C_2
REMARK    2  A    between atoms: C_14  and  C_15
REMARK                            x       y       z     vdW  Elec       q    Type
REMARK                         _______ _______ _______ _____ _____    ______ ____
ROOT
ATOM      1  C   UNL     1       3.278   1.192 -21.316  0.00  0.00    +0.019 C 
ATOM      2  C   UNL     1       2.659   1.774 -22.299  0.00  0.00    +0.029 C 
ATOM      3  C   UNL     1       1.883   1.439 -21.312  0.00  0.00    +0.015 C 
ATOM      4  C   UNL     1       0.610   1.693 -21.370  0.00  0.00    +0.005 C 
ATOM      5  C   UNL     1       0.112   2.284 -22.416  0.00  0.00    +0.003 C 
ATOM      6  C   UNL     1       0.887   2.620 -23.403  0.00  0.00    +0.001 C 
ATOM      7  C   UNL     1       0.389   3.210 -24.449  0.00  0.00    +0.031 C 
ATOM      8  C   UNL     1      -0.885   3.464 -24.507  0.00  0.00    -0.027 C 
ATOM      9  C   UNL     1      -1.660   3.128 -23.518  0.00  0.00    -0.062 C 
ATOM     10  C   UNL     1      -2.933   3.383 -23.576  0.00  0.00    +0.096 C 
ATOM     11  C   UNL     1      -3.709   3.047 -22.588  0.00  0.00    +0.174 C 
ATOM     12  O   UNL     1      -4.587   2.764 -21.673  0.00  0.00    -0.346 OA
ATOM     13  C   UNL     1      -5.749   3.171 -22.091  0.00  0.00    +0.191 C 
ATOM     14  C   UNL     1      -5.588   3.706 -23.264  0.00  0.00    +0.191 C 
ATOM     15  C   UNL     1      -3.211   2.457 -21.543  0.00  0.00    +0.066 C 
ATOM     16  C   UNL     1      -1.937   2.202 -21.485  0.00  0.00    +0.016 C 
ATOM     17  O   UNL     1      -4.328   3.630 -23.573  0.00  0.00    -0.346 OA
ATOM     18  C   UNL     1      -1.162   2.538 -22.473  0.00  0.00    -0.008 C 
ATOM     19  C   UNL     1      -0.663   1.948 -21.428  0.00  0.00    +0.016 C 
ATOM     20  C   UNL     1       3.938   1.637 -22.487  0.00  0.00    +0.139 C 
ATOM     21  O   UNL     1       4.777   1.090 -21.659  0.00  0.00    -0.297 OA
ATOM     22  C   UNL     1       4.230   2.142 -23.649  0.00  0.00    +0.075 C 
ATOM     23  C   UNL     1       3.132   2.592 -24.179  0.00  0.00    +0.012 C 
ATOM     24  C   UNL     1       2.161   2.365 -23.346  0.00  0.00    +0.006 C 
ENDROOT
TORSDOF 0
ENDMDL
MODEL 4
REMARK VINA RESULT:   -11.789      1.347      6.863
REMARK INTER + INTRA:         -11.789
REMARK INTER:                 -11.789
REMARK INTRA:                   0.000
REMARK UNBOUND:                 0.000
REMARK  Name = ZINC000005359880
REMARK  2 active torsions:
REMARK  status: ('A' for Active; 'I' for Inactive)
REMARK    1  A    between atoms: C_1  and  C_2
REMARK    2  A    between atoms: C_14  and  C_15
REMARK                            x       y       z     vdW  Elec       q    Type
REMARK                         _______ _______ _______ _____ _____    ______ ____
ROOT
ATOM      1  C   UNL     1       4.188   2.820 -23.433  0.00  0.00    +0.019 C 
ATOM      2  C   UNL     1       3.194   2.359 -22.734  0.00  0.00    +0.029 C 
ATOM      3  C   UNL     1       2.838   3.151 -23.702  0.00  0.00    +0.015 C 
ATOM      4  C   UNL     1       1.581   3.415 -23.897  0.00  0.00    +0.005 C 
ATOM      5  C   UNL     1       0.678   2.888 -23.123  0.00  0.00    +0.003 C 
ATOM      6  C   UNL     1       1.034   2.097 -22.155  0.00  0.00    +0.001 C 
ATOM      7  C   UNL     1       0.131   1.570 -21.382  0.00  0.00    +0.031 C 
ATOM      8  C   UNL     1      -1.127   1.835 -21.577  0.00  0.00    -0.027 C 
ATOM      9  C   UNL     1      -1.482   2.626 -22.545  0.00  0.00    -0.062 C 
ATOM     10  C   UNL     1      -2.740   2.891 -22.740  0.00  0.00    +0.096 C 
ATOM     11  C   UNL     1      -3.095   3.682 -23.708  0.00  0.00    +0.174 C 
ATOM     12  O   UNL     1      -3.580   4.453 -24.635  0.00  0.00    -0.346 OA
ATOM     13  C   UNL     1      -4.873   4.470 -24.510  0.00  0.00    +0.191 C 
ATOM     14  C   UNL     1      -5.188   3.709 -23.505  0.00  0.00    +0.191 C 
ATOM     15  C   UNL     1      -2.194   4.209 -24.481  0.00  0.00    +0.066 C 
ATOM     16  C   UNL     1      -0.935   3.944 -24.286  0.00  0.00    +0.016 C 
ATOM     17  O   UNL     1      -4.090   3.222 -23.008  0.00  0.00    -0.346 OA
ATOM     18  C   UNL     1      -0.580   3.153 -23.318  0.00  0.00    -0.008 C 
ATOM     19  C   UNL     1       0.323   3.680 -24.092  0.00  0.00    +0.016 C 
ATOM     20  C   UNL     1       4.359   1.942 -22.335  0.00  0.00    +0.139 C 
ATOM     21  O   UNL     1       5.504   2.254 -22.862  0.00  0.00    -0.297 OA
ATOM     22  C   UNL     1       4.176   1.157 -21.314  0.00  0.00    +0.075 C 
ATOM     23  C   UNL     1       2.899   1.089 -21.083  0.00  0.00    +0.012 C 
ATOM     24  C   UNL     1       2.292   1.832 -21.960  0.00  0.00    +0.006 C 
ENDROOT
TORSDOF 0
ENDMDL
MODEL 5
REMARK VINA RESULT:   -11.227      1.357      2.858
REMARK INTER + INTRA:         -11.227
REMARK INTER:                 -11.227
REMARK INTRA:                   0.000
REMARK UNBOUND:                 0.000
REMARK  Name = ZINC000005359880
REMARK  2 active torsions:
REMARK  status: ('A' for Active; 'I' for Inactive)
REMARK    1  A    between atoms: C_1  and  C_2
REMARK    2  A    between atoms: C_14  and  C_15
REMARK                            x       y       z     vdW  Elec       q    Type
REMARK                         _______ _______ _______ _____ _____    ______ ____
ROOT
ATOM      1  C   UNL     1      -3.051   4.257 -24.013  0.00  0.00    +0.019 C 
ATOM      2  C   UNL     1      -2.412   3.513 -23.161  0.00  0.00    +0.029 C 
ATOM      3  C   UNL     1      -1.640   4.149 -23.991  0.00  0.00    +0.015 C 
ATOM      4  C   UNL     1      -0.350   4.006 -23.919  0.00  0.00    +0.005 C 
ATOM      5  C   UNL     1       0.169   3.228 -23.016  0.00  0.00    +0.003 C 
ATOM      6  C   UNL     1      -0.603   2.591 -22.186  0.00  0.00    +0.001 C 
ATOM      7  C   UNL     1      -0.084   1.813 -21.283  0.00  0.00    +0.031 C 
ATOM      8  C   UNL     1       1.206   1.670 -21.211  0.00  0.00    -0.027 C 
ATOM      9  C   UNL     1       1.977   2.307 -22.042  0.00  0.00    -0.062 C 
ATOM     10  C   UNL     1       3.267   2.165 -21.969  0.00  0.00    +0.096 C 
ATOM     11  C   UNL     1       4.039   2.801 -22.800  0.00  0.00    +0.174 C 
ATOM     12  O   UNL     1       4.916   3.378 -23.566  0.00  0.00    -0.346 OA
ATOM     13  C   UNL     1       6.098   2.990 -23.188  0.00  0.00    +0.191 C 
ATOM     14  C   UNL     1       5.951   2.173 -22.188  0.00  0.00    +0.191 C 
ATOM     15  C   UNL     1       3.521   3.579 -23.702  0.00  0.00    +0.066 C 
ATOM     16  C   UNL     1       2.230   3.722 -23.774  0.00  0.00    +0.016 C 
ATOM     17  O   UNL     1       4.679   2.056 -21.947  0.00  0.00    -0.346 OA
ATOM     18  C   UNL     1       1.459   3.085 -22.944  0.00  0.00    -0.008 C 
ATOM     19  C   UNL     1       0.940   3.864 -23.846  0.00  0.00    +0.016 C 
ATOM     20  C   UNL     1      -3.704   3.482 -23.024  0.00  0.00    +0.139 C 
ATOM     21  O   UNL     1      -4.565   4.134 -23.746  0.00  0.00    -0.297 OA
ATOM     22  C   UNL     1      -3.984   2.684 -22.036  0.00  0.00    +0.075 C 
ATOM     23  C   UNL     1      -2.865   2.222 -21.563  0.00  0.00    +0.012 C 
ATOM     24  C   UNL     1      -1.893   2.734 -22.258  0.00  0.00    +0.006 C 
ENDROOT
TORSDOF 0
ENDMDL
