MODEL 1
REMARK VINA RESULT:   -11.490      0.000      0.000
REMARK INTER + INTRA:         -11.958
REMARK INTER:                 -12.770
REMARK INTRA:                   0.812
REMARK UNBOUND:                 0.876
REMARK  Name = ZINC000004292928
REMARK  5 active torsions:
REMARK  status: ('A' for Active; 'I' for Inactive)
REMARK    1  A    between atoms: C_1  and  C_2
REMARK    2  A    between atoms: C_2  and  O_4
REMARK    3  A    between atoms: O_4  and  C_5
REMARK    4  A    between atoms: C_18  and  C_19
REMARK    5  A    between atoms: C_23  and  C_24
REMARK                            x       y       z     vdW  Elec       q    Type
REMARK                         _______ _______ _______ _____ _____    ______ ____
ROOT
ATOM      1  C   UNL     1       1.963   3.118 -23.681  0.00  0.00    +0.183 C 
ATOM      2  C   UNL     1       1.865   3.776 -24.798  0.00  0.00    +0.045 C 
ATOM      3  C   UNL     1       0.607   4.034 -25.004  0.00  0.00    +0.008 C 
ATOM      4  C   UNL     1      -0.072   3.535 -24.014  0.00  0.00    +0.002 C 
ATOM      5  C   UNL     1      -1.346   3.523 -23.751  0.00  0.00    -0.003 C 
ATOM      6  C   UNL     1      -2.183   4.089 -24.569  0.00  0.00    +0.008 C 
ATOM      7  C   UNL     1      -3.456   4.077 -24.307  0.00  0.00    +0.032 C 
ATOM      8  C   UNL     1      -3.892   3.500 -23.227  0.00  0.00    -0.060 C 
ATOM      9  C   UNL     1      -5.165   3.487 -22.964  0.00  0.00    +0.046 C 
ATOM     10  C   UNL     1      -5.601   2.911 -21.885  0.00  0.00    +0.156 C 
ATOM     11  C   UNL     1      -4.764   2.345 -21.067  0.00  0.00    +0.080 C 
ATOM     12  C   UNL     1      -3.490   2.357 -21.330  0.00  0.00    +0.019 C 
ATOM     13  O   UNL     1      -6.874   2.899 -21.622  0.00  0.00    -0.293 OA
ATOM     14  C   UNL     1      -3.054   2.934 -22.409  0.00  0.00    -0.007 C 
ATOM     15  C   UNL     1      -2.217   2.368 -21.591  0.00  0.00    +0.016 C 
ATOM     16  C   UNL     1      -1.781   2.946 -22.671  0.00  0.00    +0.002 C 
ATOM     17  C   UNL     1      -0.944   2.380 -21.853  0.00  0.00    +0.005 C 
ATOM     18  C   UNL     1       0.329   2.392 -22.116  0.00  0.00    +0.011 C 
ATOM     19  C   UNL     1       0.765   2.970 -23.196  0.00  0.00    +0.008 C 
ATOM     20  C   UNL     1       1.702   2.443 -22.464  0.00  0.00    +0.015 C 
ENDROOT
BRANCH   1  21
ATOM     21  O   UNL     1       3.064   2.686 -23.142  0.00  0.00    -0.461 OA
BRANCH  21  23
ATOM     22  C   UNL     1       5.226   3.019 -23.674  0.00  0.00    +0.136 C 
ATOM     23  C   UNL     1       4.122   3.440 -23.132  0.00  0.00    +0.304 C 
ATOM     24  O   UNL     1       4.077   4.617 -22.580  0.00  0.00    -0.251 OA
ENDBRANCH  21  23
ENDBRANCH   1  21
TORSDOF 2
ENDMDL
MODEL 2
REMARK VINA RESULT:   -10.809      1.574      6.635
REMARK INTER + INTRA:         -11.197
REMARK INTER:                 -12.609
REMARK INTRA:                   1.411
REMARK UNBOUND:                 0.876
REMARK  Name = ZINC000004292928
REMARK  5 active torsions:
REMARK  status: ('A' for Active; 'I' for Inactive)
REMARK    1  A    between atoms: C_1  and  C_2
REMARK    2  A    between atoms: C_2  and  O_4
REMARK    3  A    between atoms: O_4  and  C_5
REMARK    4  A    between atoms: C_18  and  C_19
REMARK    5  A    between atoms: C_23  and  C_24
REMARK                            x       y       z     vdW  Elec       q    Type
REMARK                         _______ _______ _______ _____ _____    ______ ____
ROOT
ATOM      1  C   UNL     1      -3.102   3.286 -22.707  0.00  0.00    +0.183 C 
ATOM      2  C   UNL     1      -3.088   3.764 -23.916  0.00  0.00    +0.045 C 
ATOM      3  C   UNL     1      -1.892   3.600 -24.400  0.00  0.00    +0.008 C 
ATOM      4  C   UNL     1      -1.167   3.021 -23.489  0.00  0.00    +0.002 C 
ATOM      5  C   UNL     1       0.078   2.645 -23.478  0.00  0.00    -0.003 C 
ATOM      6  C   UNL     1       0.825   2.839 -24.524  0.00  0.00    +0.008 C 
ATOM      7  C   UNL     1       2.069   2.464 -24.513  0.00  0.00    +0.032 C 
ATOM      8  C   UNL     1       2.566   1.895 -23.455  0.00  0.00    -0.060 C 
ATOM      9  C   UNL     1       3.811   1.519 -23.444  0.00  0.00    +0.046 C 
ATOM     10  C   UNL     1       4.309   0.949 -22.387  0.00  0.00    +0.156 C 
ATOM     11  C   UNL     1       3.562   0.755 -21.341  0.00  0.00    +0.080 C 
ATOM     12  C   UNL     1       2.317   1.131 -21.353  0.00  0.00    +0.019 C 
ATOM     13  O   UNL     1       5.553   0.574 -22.376  0.00  0.00    -0.293 OA
ATOM     14  C   UNL     1       1.819   1.700 -22.409  0.00  0.00    -0.007 C 
ATOM     15  C   UNL     1       1.072   1.506 -21.363  0.00  0.00    +0.016 C 
ATOM     16  C   UNL     1       0.575   2.076 -22.421  0.00  0.00    +0.002 C 
ATOM     17  C   UNL     1      -0.172   1.882 -21.374  0.00  0.00    +0.005 C 
ATOM     18  C   UNL     1      -1.416   2.257 -21.386  0.00  0.00    +0.011 C 
ATOM     19  C   UNL     1      -1.914   2.827 -22.443  0.00  0.00    +0.008 C 
ATOM     20  C   UNL     1      -2.762   2.691 -21.467  0.00  0.00    +0.015 C 
ENDROOT
BRANCH   1  21
ATOM     21  O   UNL     1      -4.122   3.270 -21.902  0.00  0.00    -0.461 OA
BRANCH  21  23
ATOM     22  C   UNL     1      -6.305   2.731 -21.783  0.00  0.00    +0.136 C 
ATOM     23  C   UNL     1      -5.328   3.345 -22.382  0.00  0.00    +0.304 C 
ATOM     24  O   UNL     1      -5.558   4.033 -23.461  0.00  0.00    -0.251 OA
ENDBRANCH  21  23
ENDBRANCH   1  21
TORSDOF 2
ENDMDL
MODEL 3
REMARK VINA RESULT:   -10.733      1.586      6.965
REMARK INTER + INTRA:         -11.112
REMARK INTER:                 -11.882
REMARK INTRA:                   0.770
REMARK UNBOUND:                 0.876
REMARK  Name = ZINC000004292928
REMARK  5 active torsions:
REMARK  status: ('A' for Active; 'I' for Inactive)
REMARK    1  A    between atoms: C_1  and  C_2
REMARK    2  A    between atoms: C_2  and  O_4
REMARK    3  A    between atoms: O_4  and  C_5
REMARK    4  A    between atoms: C_18  and  C_19
REMARK    5  A    between atoms: C_23  and  C_24
REMARK                            x       y       z     vdW  Elec       q    Type
REMARK                         _______ _______ _______ _____ _____    ______ ____
ROOT
ATOM      1  C   UNL     1      -2.586   3.577 -23.378  0.00  0.00    +0.183 C 
ATOM      2  C   UNL     1      -2.943   2.622 -22.570  0.00  0.00    +0.045 C 
ATOM      3  C   UNL     1      -1.865   2.089 -22.076  0.00  0.00    +0.008 C 
ATOM      4  C   UNL     1      -0.841   2.714 -22.579  0.00  0.00    +0.002 C 
ATOM      5  C   UNL     1       0.439   2.565 -22.408  0.00  0.00    -0.003 C 
ATOM      6  C   UNL     1       0.884   1.646 -21.603  0.00  0.00    +0.008 C 
ATOM      7  C   UNL     1       2.164   1.496 -21.432  0.00  0.00    +0.032 C 
ATOM      8  C   UNL     1       2.998   2.266 -22.065  0.00  0.00    -0.060 C 
ATOM      9  C   UNL     1       4.279   2.116 -21.894  0.00  0.00    +0.046 C 
ATOM     10  C   UNL     1       5.114   2.885 -22.527  0.00  0.00    +0.156 C 
ATOM     11  C   UNL     1       4.668   3.805 -23.331  0.00  0.00    +0.080 C 
ATOM     12  C   UNL     1       3.388   3.954 -23.502  0.00  0.00    +0.019 C 
ATOM     13  O   UNL     1       6.393   2.736 -22.355  0.00  0.00    -0.293 OA
ATOM     14  C   UNL     1       2.553   3.185 -22.870  0.00  0.00    -0.007 C 
ATOM     15  C   UNL     1       2.108   4.104 -23.674  0.00  0.00    +0.016 C 
ATOM     16  C   UNL     1       1.274   3.334 -23.041  0.00  0.00    +0.002 C 
ATOM     17  C   UNL     1       0.828   4.254 -23.845  0.00  0.00    +0.005 C 
ATOM     18  C   UNL     1      -0.451   4.403 -24.016  0.00  0.00    +0.011 C 
ATOM     19  C   UNL     1      -1.287   3.633 -23.383  0.00  0.00    +0.008 C 
ATOM     20  C   UNL     1      -1.857   4.510 -24.155  0.00  0.00    +0.015 C 
ENDROOT
BRANCH   1  21
ATOM     21  O   UNL     1      -3.386   4.340 -24.061  0.00  0.00    -0.461 OA
BRANCH  21  23
ATOM     22  C   UNL     1      -4.723   3.378 -25.595  0.00  0.00    +0.136 C 
ATOM     23  C   UNL     1      -4.556   3.901 -24.417  0.00  0.00    +0.304 C 
ATOM     24  O   UNL     1      -5.560   3.984 -23.595  0.00  0.00    -0.251 OA
ENDBRANCH  21  23
ENDBRANCH   1  21
TORSDOF 2
ENDMDL
MODEL 4
REMARK VINA RESULT:   -10.665      1.135      2.708
REMARK INTER + INTRA:         -11.036
REMARK INTER:                 -11.821
REMARK INTRA:                   0.785
REMARK UNBOUND:                 0.876
REMARK  Name = ZINC000004292928
REMARK  5 active torsions:
REMARK  status: ('A' for Active; 'I' for Inactive)
REMARK    1  A    between atoms: C_1  and  C_2
REMARK    2  A    between atoms: C_2  and  O_4
REMARK    3  A    between atoms: O_4  and  C_5
REMARK    4  A    between atoms: C_18  and  C_19
REMARK    5  A    between atoms: C_23  and  C_24
REMARK                            x       y       z     vdW  Elec       q    Type
REMARK                         _______ _______ _______ _____ _____    ______ ____
ROOT
ATOM      1  C   UNL     1       3.407   2.846 -22.897  0.00  0.00    +0.183 C 
ATOM      2  C   UNL     1       3.403   2.012 -21.900  0.00  0.00    +0.045 C 
ATOM      3  C   UNL     1       2.166   1.785 -21.572  0.00  0.00    +0.008 C 
ATOM      4  C   UNL     1       1.405   2.478 -22.366  0.00  0.00    +0.002 C 
ATOM      5  C   UNL     1       0.113   2.597 -22.450  0.00  0.00    -0.003 C 
ATOM      6  C   UNL     1      -0.654   1.941 -21.630  0.00  0.00    +0.008 C 
ATOM      7  C   UNL     1      -1.946   2.059 -21.713  0.00  0.00    +0.032 C 
ATOM      8  C   UNL     1      -2.470   2.834 -22.616  0.00  0.00    -0.060 C 
ATOM      9  C   UNL     1      -3.763   2.953 -22.699  0.00  0.00    +0.046 C 
ATOM     10  C   UNL     1      -4.288   3.727 -23.601  0.00  0.00    +0.156 C 
ATOM     11  C   UNL     1      -3.521   4.384 -24.420  0.00  0.00    +0.080 C 
ATOM     12  C   UNL     1      -2.228   4.265 -24.336  0.00  0.00    +0.019 C 
ATOM     13  O   UNL     1      -5.579   3.846 -23.684  0.00  0.00    -0.293 OA
ATOM     14  C   UNL     1      -1.703   3.490 -23.435  0.00  0.00    -0.007 C 
ATOM     15  C   UNL     1      -0.936   4.147 -24.254  0.00  0.00    +0.016 C 
ATOM     16  C   UNL     1      -0.412   3.372 -23.352  0.00  0.00    +0.002 C 
ATOM     17  C   UNL     1       0.355   4.028 -24.171  0.00  0.00    +0.005 C 
ATOM     18  C   UNL     1       1.647   3.909 -24.088  0.00  0.00    +0.011 C 
ATOM     19  C   UNL     1       2.172   3.134 -23.185  0.00  0.00    +0.008 C 
ATOM     20  C   UNL     1       3.045   3.733 -23.941  0.00  0.00    +0.015 C 
ENDROOT
BRANCH   1  21
ATOM     21  O   UNL     1       4.460   3.311 -23.501  0.00  0.00    -0.461 OA
BRANCH  21  23
ATOM     22  C   UNL     1       6.603   2.961 -22.903  0.00  0.00    +0.136 C 
ATOM     23  C   UNL     1       5.507   3.654 -22.809  0.00  0.00    +0.304 C 
ATOM     24  O   UNL     1       5.457   4.689 -22.025  0.00  0.00    -0.251 OA
ENDBRANCH  21  23
ENDBRANCH   1  21
TORSDOF 2
ENDMDL
MODEL 5
REMARK VINA RESULT:    -8.716      2.324      7.771
REMARK INTER + INTRA:          -8.859
REMARK INTER:                  -9.565
REMARK INTRA:                   0.706
REMARK UNBOUND:                 0.876
REMARK  Name = ZINC000004292928
REMARK  5 active torsions:
REMARK  status: ('A' for Active; 'I' for Inactive)
REMARK    1  A    between atoms: C_1  and  C_2
REMARK    2  A    between atoms: C_2  and  O_4
REMARK    3  A    between atoms: O_4  and  C_5
REMARK    4  A    between atoms: C_18  and  C_19
REMARK    5  A    between atoms: C_23  and  C_24
REMARK                            x       y       z     vdW  Elec       q    Type
REMARK                         _______ _______ _______ _____ _____    ______ ____
ROOT
ATOM      1  C   UNL     1      -0.156   3.816 -23.683  0.00  0.00    +0.183 C 
ATOM      2  C   UNL     1      -0.185   2.529 -23.863  0.00  0.00    +0.045 C 
ATOM      3  C   UNL     1       1.031   2.081 -23.761  0.00  0.00    +0.008 C 
ATOM      4  C   UNL     1       1.812   3.092 -23.518  0.00  0.00    +0.002 C 
ATOM      5  C   UNL     1       3.097   3.175 -23.334  0.00  0.00    -0.003 C 
ATOM      6  C   UNL     1       3.830   2.103 -23.382  0.00  0.00    +0.008 C 
ATOM      7  C   UNL     1       5.114   2.185 -23.198  0.00  0.00    +0.032 C 
ATOM      8  C   UNL     1       5.665   3.339 -22.966  0.00  0.00    -0.060 C 
ATOM      9  C   UNL     1       6.949   3.422 -22.782  0.00  0.00    +0.046 C 
ATOM     10  C   UNL     1       7.500   4.576 -22.551  0.00  0.00    +0.156 C 
ATOM     11  C   UNL     1       6.767   5.648 -22.503  0.00  0.00    +0.080 C 
ATOM     12  C   UNL     1       5.482   5.565 -22.687  0.00  0.00    +0.019 C 
ATOM     13  O   UNL     1       8.784   4.658 -22.367  0.00  0.00    -0.293 OA
ATOM     14  C   UNL     1       4.931   4.412 -22.918  0.00  0.00    -0.007 C 
ATOM     15  C   UNL     1       4.198   5.484 -22.871  0.00  0.00    +0.016 C 
ATOM     16  C   UNL     1       3.647   4.329 -23.102  0.00  0.00    +0.002 C 
ATOM     17  C   UNL     1       2.914   5.401 -23.054  0.00  0.00    +0.005 C 
ATOM     18  C   UNL     1       1.630   5.319 -23.238  0.00  0.00    +0.011 C 
ATOM     19  C   UNL     1       1.078   4.164 -23.470  0.00  0.00    +0.008 C 
ATOM     20  C   UNL     1       0.238   5.156 -23.447  0.00  0.00    +0.015 C 
ENDROOT
BRANCH   1  21
ATOM     21  O   UNL     1      -1.181   4.616 -23.712  0.00  0.00    -0.461 OA
BRANCH  21  23
ATOM     22  C   UNL     1      -2.835   3.705 -22.485  0.00  0.00    +0.136 C 
ATOM     23  C   UNL     1      -2.384   4.132 -23.628  0.00  0.00    +0.304 C 
ATOM     24  O   UNL     1      -3.138   4.075 -24.686  0.00  0.00    -0.251 OA
ENDBRANCH  21  23
ENDBRANCH   1  21
TORSDOF 2
ENDMDL
