MODEL 1
REMARK VINA RESULT:    -8.159      0.000      0.000
REMARK INTER + INTRA:          -8.159
REMARK INTER:                  -8.159
REMARK INTRA:                   0.000
REMARK UNBOUND:                 0.000
REMARK  Name = ZINC000000073700
REMARK  0 active torsions:
REMARK  status: ('A' for Active; 'I' for Inactive)
REMARK                            x       y       z     vdW  Elec       q    Type
REMARK                         _______ _______ _______ _____ _____    ______ ____
ROOT
ATOM      1  O   UNL     1       0.799   2.230 -24.006  0.00  0.00    -0.245 OA
ATOM      2  C   UNL     1      -0.274   2.309 -23.275  0.00  0.00    +0.337 A 
ATOM      3  C   UNL     1      -0.238   1.942 -22.028  0.00  0.00    +0.092 A 
ATOM      4  C   UNL     1      -1.311   2.021 -21.297  0.00  0.00    +0.018 A 
ATOM      5  C   UNL     1      -2.417   2.467 -21.812  0.00  0.00    +0.018 A 
ATOM      6  C   UNL     1      -3.490   2.546 -21.081  0.00  0.00    +0.015 A 
ATOM      7  C   UNL     1      -4.597   2.992 -21.596  0.00  0.00    +0.047 A 
ATOM      8  C   UNL     1      -4.631   3.360 -22.843  0.00  0.00    +0.138 A 
ATOM      9  O   UNL     1      -5.589   3.831 -23.585  0.00  0.00    -0.463 OA
ATOM     10  C   UNL     1      -5.109   4.044 -24.774  0.00  0.00    +0.196 A 
ATOM     11  C   UNL     1      -3.855   3.704 -24.768  0.00  0.00    +0.053 A 
ATOM     12  C   UNL     1      -3.559   3.281 -23.574  0.00  0.00    +0.063 A 
ATOM     13  C   UNL     1      -2.452   2.834 -23.059  0.00  0.00    +0.150 A 
ATOM     14  O   UNL     1      -1.380   2.756 -23.790  0.00  0.00    -0.421 OA
ENDROOT
TORSDOF 0
ENDMDL
MODEL 2
REMARK VINA RESULT:    -8.103      1.193      4.717
REMARK INTER + INTRA:          -8.103
REMARK INTER:                  -8.103
REMARK INTRA:                   0.000
REMARK UNBOUND:                 0.000
REMARK  Name = ZINC000000073700
REMARK  0 active torsions:
REMARK  status: ('A' for Active; 'I' for Inactive)
REMARK                            x       y       z     vdW  Elec       q    Type
REMARK                         _______ _______ _______ _____ _____    ______ ____
ROOT
ATOM      1  O   UNL     1      -6.123   3.364 -21.998  0.00  0.00    -0.245 OA
ATOM      2  C   UNL     1      -5.084   3.436 -22.777  0.00  0.00    +0.337 A 
ATOM      3  C   UNL     1      -5.181   4.016 -23.937  0.00  0.00    +0.092 A 
ATOM      4  C   UNL     1      -4.142   4.089 -24.716  0.00  0.00    +0.018 A 
ATOM      5  C   UNL     1      -3.008   3.582 -24.335  0.00  0.00    +0.018 A 
ATOM      6  C   UNL     1      -1.969   3.655 -25.114  0.00  0.00    +0.015 A 
ATOM      7  C   UNL     1      -0.834   3.148 -24.733  0.00  0.00    +0.047 A 
ATOM      8  C   UNL     1      -0.738   2.569 -23.573  0.00  0.00    +0.138 A 
ATOM      9  O   UNL     1       0.259   1.995 -22.967  0.00  0.00    -0.463 OA
ATOM     10  C   UNL     1      -0.163   1.567 -21.814  0.00  0.00    +0.196 A 
ATOM     11  C   UNL     1      -1.421   1.877 -21.707  0.00  0.00    +0.053 A 
ATOM     12  C   UNL     1      -1.777   2.496 -22.794  0.00  0.00    +0.063 A 
ATOM     13  C   UNL     1      -2.911   3.003 -23.175  0.00  0.00    +0.150 A 
ATOM     14  O   UNL     1      -3.949   2.930 -22.396  0.00  0.00    -0.421 OA
ENDROOT
TORSDOF 0
ENDMDL
MODEL 3
REMARK VINA RESULT:    -7.882      1.144      2.575
REMARK INTER + INTRA:          -7.882
REMARK INTER:                  -7.882
REMARK INTRA:                   0.000
REMARK UNBOUND:                 0.000
REMARK  Name = ZINC000000073700
REMARK  0 active torsions:
REMARK  status: ('A' for Active; 'I' for Inactive)
REMARK                            x       y       z     vdW  Elec       q    Type
REMARK                         _______ _______ _______ _____ _____    ______ ____
ROOT
ATOM      1  O   UNL     1       0.523   2.065 -22.744  0.00  0.00    -0.245 OA
ATOM      2  C   UNL     1      -0.476   2.599 -23.382  0.00  0.00    +0.337 A 
ATOM      3  C   UNL     1      -0.294   3.111 -24.564  0.00  0.00    +0.092 A 
ATOM      4  C   UNL     1      -1.293   3.645 -25.201  0.00  0.00    +0.018 A 
ATOM      5  C   UNL     1      -2.473   3.669 -24.657  0.00  0.00    +0.018 A 
ATOM      6  C   UNL     1      -3.473   4.204 -25.295  0.00  0.00    +0.015 A 
ATOM      7  C   UNL     1      -4.653   4.228 -24.751  0.00  0.00    +0.047 A 
ATOM      8  C   UNL     1      -4.834   3.716 -23.569  0.00  0.00    +0.138 A 
ATOM      9  O   UNL     1      -5.890   3.614 -22.818  0.00  0.00    -0.463 OA
ATOM     10  C   UNL     1      -5.545   3.016 -21.717  0.00  0.00    +0.196 A 
ATOM     11  C   UNL     1      -4.275   2.749 -21.786  0.00  0.00    +0.053 A 
ATOM     12  C   UNL     1      -3.835   3.182 -22.932  0.00  0.00    +0.063 A 
ATOM     13  C   UNL     1      -2.655   3.158 -23.476  0.00  0.00    +0.150 A 
ATOM     14  O   UNL     1      -1.656   2.623 -22.838  0.00  0.00    -0.421 OA
ENDROOT
TORSDOF 0
ENDMDL
MODEL 4
REMARK VINA RESULT:    -7.824      1.514      3.882
REMARK INTER + INTRA:          -7.824
REMARK INTER:                  -7.824
REMARK INTRA:                   0.000
REMARK UNBOUND:                 0.000
REMARK  Name = ZINC000000073700
REMARK  0 active torsions:
REMARK  status: ('A' for Active; 'I' for Inactive)
REMARK                            x       y       z     vdW  Elec       q    Type
REMARK                         _______ _______ _______ _____ _____    ______ ____
ROOT
ATOM      1  O   UNL     1      -3.475   3.389 -27.031  0.00  0.00    -0.245 OA
ATOM      2  C   UNL     1      -3.706   3.396 -25.751  0.00  0.00    +0.337 A 
ATOM      3  C   UNL     1      -4.863   3.784 -25.302  0.00  0.00    +0.092 A 
ATOM      4  C   UNL     1      -5.094   3.791 -24.023  0.00  0.00    +0.018 A 
ATOM      5  C   UNL     1      -4.168   3.410 -23.193  0.00  0.00    +0.018 A 
ATOM      6  C   UNL     1      -4.399   3.418 -21.913  0.00  0.00    +0.015 A 
ATOM      7  C   UNL     1      -3.473   3.037 -21.084  0.00  0.00    +0.047 A 
ATOM      8  C   UNL     1      -2.317   2.649 -21.533  0.00  0.00    +0.138 A 
ATOM      9  O   UNL     1      -1.245   2.229 -20.930  0.00  0.00    -0.463 OA
ATOM     10  C   UNL     1      -0.351   1.962 -21.836  0.00  0.00    +0.196 A 
ATOM     11  C   UNL     1      -0.871   2.217 -23.000  0.00  0.00    +0.053 A 
ATOM     12  C   UNL     1      -2.086   2.642 -22.813  0.00  0.00    +0.063 A 
ATOM     13  C   UNL     1      -3.012   3.023 -23.643  0.00  0.00    +0.150 A 
ATOM     14  O   UNL     1      -2.780   3.015 -24.922  0.00  0.00    -0.421 OA
ENDROOT
TORSDOF 0
ENDMDL
MODEL 5
REMARK VINA RESULT:    -7.735      1.127      4.022
REMARK INTER + INTRA:          -7.735
REMARK INTER:                  -7.735
REMARK INTRA:                   0.000
REMARK UNBOUND:                 0.000
REMARK  Name = ZINC000000073700
REMARK  0 active torsions:
REMARK  status: ('A' for Active; 'I' for Inactive)
REMARK                            x       y       z     vdW  Elec       q    Type
REMARK                         _______ _______ _______ _____ _____    ______ ____
ROOT
ATOM      1  O   UNL     1      -5.637   3.822 -23.284  0.00  0.00    -0.245 OA
ATOM      2  C   UNL     1      -4.509   3.383 -22.807  0.00  0.00    +0.337 A 
ATOM      3  C   UNL     1      -4.467   2.859 -21.618  0.00  0.00    +0.092 A 
ATOM      4  C   UNL     1      -3.339   2.420 -21.141  0.00  0.00    +0.018 A 
ATOM      5  C   UNL     1      -2.255   2.504 -21.854  0.00  0.00    +0.018 A 
ATOM      6  C   UNL     1      -1.128   2.065 -21.378  0.00  0.00    +0.015 A 
ATOM      7  C   UNL     1      -0.044   2.149 -22.091  0.00  0.00    +0.047 A 
ATOM      8  C   UNL     1      -0.088   2.673 -23.280  0.00  0.00    +0.138 A 
ATOM      9  O   UNL     1       0.831   2.871 -24.178  0.00  0.00    -0.463 OA
ATOM     10  C   UNL     1       0.273   3.432 -25.209  0.00  0.00    +0.196 A 
ATOM     11  C   UNL     1      -0.992   3.581 -24.949  0.00  0.00    +0.053 A 
ATOM     12  C   UNL     1      -1.215   3.112 -23.756  0.00  0.00    +0.063 A 
ATOM     13  C   UNL     1      -2.299   3.028 -23.044  0.00  0.00    +0.150 A 
ATOM     14  O   UNL     1      -3.426   3.467 -23.520  0.00  0.00    -0.421 OA
ENDROOT
TORSDOF 0
ENDMDL
MODEL 6
REMARK VINA RESULT:    -7.312      2.280      3.801
REMARK INTER + INTRA:          -7.312
REMARK INTER:                  -7.312
REMARK INTRA:                   0.000
REMARK UNBOUND:                 0.000
REMARK  Name = ZINC000000073700
REMARK  0 active torsions:
REMARK  status: ('A' for Active; 'I' for Inactive)
REMARK                            x       y       z     vdW  Elec       q    Type
REMARK                         _______ _______ _______ _____ _____    ______ ____
ROOT
ATOM      1  O   UNL     1       2.685   0.005 -22.869  0.00  0.00    -0.245 OA
ATOM      2  C   UNL     1       2.173   1.193 -23.006  0.00  0.00    +0.337 A 
ATOM      3  C   UNL     1       2.868   2.139 -23.567  0.00  0.00    +0.092 A 
ATOM      4  C   UNL     1       2.356   3.326 -23.704  0.00  0.00    +0.018 A 
ATOM      5  C   UNL     1       1.151   3.567 -23.281  0.00  0.00    +0.018 A 
ATOM      6  C   UNL     1       0.639   4.755 -23.418  0.00  0.00    +0.015 A 
ATOM      7  C   UNL     1      -0.566   4.996 -22.994  0.00  0.00    +0.047 A 
ATOM      8  C   UNL     1      -1.259   4.050 -22.434  0.00  0.00    +0.138 A 
ATOM      9  O   UNL     1      -2.460   4.030 -21.936  0.00  0.00    -0.463 OA
ATOM     10  C   UNL     1      -2.691   2.830 -21.492  0.00  0.00    +0.196 A 
ATOM     11  C   UNL     1      -1.633   2.109 -21.714  0.00  0.00    +0.053 A 
ATOM     12  C   UNL     1      -0.748   2.863 -22.297  0.00  0.00    +0.063 A 
ATOM     13  C   UNL     1       0.457   2.621 -22.720  0.00  0.00    +0.150 A 
ATOM     14  O   UNL     1       0.968   1.434 -22.583  0.00  0.00    -0.421 OA
ENDROOT
TORSDOF 0
ENDMDL
MODEL 7
REMARK VINA RESULT:    -7.078      1.210      4.309
REMARK INTER + INTRA:          -7.078
REMARK INTER:                  -7.078
REMARK INTRA:                   0.000
REMARK UNBOUND:                 0.000
REMARK  Name = ZINC000000073700
REMARK  0 active torsions:
REMARK  status: ('A' for Active; 'I' for Inactive)
REMARK                            x       y       z     vdW  Elec       q    Type
REMARK                         _______ _______ _______ _____ _____    ______ ____
ROOT
ATOM      1  O   UNL     1      -4.155   4.448 -25.027  0.00  0.00    -0.245 OA
ATOM      2  C   UNL     1      -3.470   3.813 -24.123  0.00  0.00    +0.337 A 
ATOM      3  C   UNL     1      -4.051   3.413 -23.030  0.00  0.00    +0.092 A 
ATOM      4  C   UNL     1      -3.366   2.778 -22.126  0.00  0.00    +0.018 A 
ATOM      5  C   UNL     1      -2.101   2.543 -22.314  0.00  0.00    +0.018 A 
ATOM      6  C   UNL     1      -1.416   1.908 -21.409  0.00  0.00    +0.015 A 
ATOM      7  C   UNL     1      -0.151   1.673 -21.598  0.00  0.00    +0.047 A 
ATOM      8  C   UNL     1       0.429   2.073 -22.690  0.00  0.00    +0.138 A 
ATOM      9  O   UNL     1       1.653   1.968 -23.115  0.00  0.00    -0.463 OA
ATOM     10  C   UNL     1       1.725   2.538 -24.281  0.00  0.00    +0.196 A 
ATOM     11  C   UNL     1       0.545   2.996 -24.578  0.00  0.00    +0.053 A 
ATOM     12  C   UNL     1      -0.257   2.708 -23.595  0.00  0.00    +0.063 A 
ATOM     13  C   UNL     1      -1.521   2.943 -23.406  0.00  0.00    +0.150 A 
ATOM     14  O   UNL     1      -2.205   3.578 -24.311  0.00  0.00    -0.421 OA
ENDROOT
TORSDOF 0
ENDMDL
MODEL 8
REMARK VINA RESULT:    -6.996      3.091      5.199
REMARK INTER + INTRA:          -6.996
REMARK INTER:                  -6.996
REMARK INTRA:                   0.000
REMARK UNBOUND:                 0.000
REMARK  Name = ZINC000000073700
REMARK  0 active torsions:
REMARK  status: ('A' for Active; 'I' for Inactive)
REMARK                            x       y       z     vdW  Elec       q    Type
REMARK                         _______ _______ _______ _____ _____    ______ ____
ROOT
ATOM      1  O   UNL     1       1.200   4.286 -26.227  0.00  0.00    -0.245 OA
ATOM      2  C   UNL     1       0.657   3.684 -25.210  0.00  0.00    +0.337 A 
ATOM      3  C   UNL     1      -0.636   3.555 -25.147  0.00  0.00    +0.092 A 
ATOM      4  C   UNL     1      -1.180   2.954 -24.130  0.00  0.00    +0.018 A 
ATOM      5  C   UNL     1      -0.431   2.482 -23.178  0.00  0.00    +0.018 A 
ATOM      6  C   UNL     1      -0.975   1.881 -22.161  0.00  0.00    +0.015 A 
ATOM      7  C   UNL     1      -0.227   1.409 -21.209  0.00  0.00    +0.047 A 
ATOM      8  C   UNL     1       1.065   1.538 -21.272  0.00  0.00    +0.138 A 
ATOM      9  O   UNL     1       2.018   1.165 -20.471  0.00  0.00    -0.463 OA
ATOM     10  C   UNL     1       3.150   1.535 -20.991  0.00  0.00    +0.196 A 
ATOM     11  C   UNL     1       2.898   2.137 -22.115  0.00  0.00    +0.053 A 
ATOM     12  C   UNL     1       1.609   2.140 -22.289  0.00  0.00    +0.063 A 
ATOM     13  C   UNL     1       0.860   2.611 -23.242  0.00  0.00    +0.150 A 
ATOM     14  O   UNL     1       1.405   3.212 -24.258  0.00  0.00    -0.421 OA
ENDROOT
TORSDOF 0
ENDMDL
MODEL 9
REMARK VINA RESULT:    -6.970      2.278      4.567
REMARK INTER + INTRA:          -6.970
REMARK INTER:                  -6.970
REMARK INTRA:                   0.000
REMARK UNBOUND:                 0.000
REMARK  Name = ZINC000000073700
REMARK  0 active torsions:
REMARK  status: ('A' for Active; 'I' for Inactive)
REMARK                            x       y       z     vdW  Elec       q    Type
REMARK                         _______ _______ _______ _____ _____    ______ ____
ROOT
ATOM      1  O   UNL     1      -3.823   3.140 -27.624  0.00  0.00    -0.245 OA
ATOM      2  C   UNL     1      -3.422   3.400 -26.415  0.00  0.00    +0.337 A 
ATOM      3  C   UNL     1      -4.292   3.552 -25.460  0.00  0.00    +0.092 A 
ATOM      4  C   UNL     1      -3.891   3.812 -24.251  0.00  0.00    +0.018 A 
ATOM      5  C   UNL     1      -2.621   3.920 -23.996  0.00  0.00    +0.018 A 
ATOM      6  C   UNL     1      -2.220   4.180 -22.787  0.00  0.00    +0.015 A 
ATOM      7  C   UNL     1      -0.949   4.288 -22.533  0.00  0.00    +0.047 A 
ATOM      8  C   UNL     1      -0.080   4.136 -23.487  0.00  0.00    +0.138 A 
ATOM      9  O   UNL     1       1.219   4.193 -23.499  0.00  0.00    -0.463 OA
ATOM     10  C   UNL     1       1.621   3.968 -24.714  0.00  0.00    +0.196 A 
ATOM     11  C   UNL     1       0.571   3.772 -25.455  0.00  0.00    +0.053 A 
ATOM     12  C   UNL     1      -0.481   3.876 -24.697  0.00  0.00    +0.063 A 
ATOM     13  C   UNL     1      -1.751   3.768 -24.951  0.00  0.00    +0.150 A 
ATOM     14  O   UNL     1      -2.151   3.508 -26.160  0.00  0.00    -0.421 OA
ENDROOT
TORSDOF 0
ENDMDL
