MODEL 1
REMARK VINA RESULT:   -11.956      0.000      0.000
REMARK INTER + INTRA:         -14.644
REMARK INTER:                 -13.961
REMARK INTRA:                  -0.684
REMARK UNBOUND:                 0.107
REMARK  Name = COc1ccc2c(c1Oc1nnnn1-c1ccccc1)[C@@]13C=CC=C[C@H]1[C@@H](C2)N(C)CC3   ZINC000253504732
REMARK  6 active torsions:
REMARK  status: ('A' for Active; 'I' for Inactive)
REMARK    1  A    between atoms: C_1  and  O_2
REMARK    2  A    between atoms: O_2  and  C_3
REMARK    3  A    between atoms: C_8  and  O_9
REMARK    4  A    between atoms: O_9  and  C_10
REMARK    5  A    between atoms: N_14  and  C_15
REMARK    6  A    between atoms: N_29  and  C_30
REMARK                            x       y       z     vdW  Elec       q    Type
REMARK                         _______ _______ _______ _____ _____    ______ ____
ROOT
ATOM      1  C   UNL     1      -1.533   3.355 -25.403  0.00  0.00    +0.163 A 
ATOM      2  C   UNL     1      -2.521   3.497 -26.176  0.00  0.00    +0.050 A 
ATOM      3  C   UNL     1      -3.675   3.612 -25.674  0.00  0.00    +0.008 A 
ATOM      4  C   UNL     1      -3.824   3.577 -24.219  0.00  0.00    -0.034 A 
ATOM      5  C   UNL     1      -2.947   3.455 -23.635  0.00  0.00    +0.013 A 
ATOM      6  C   UNL     1      -2.816   3.406 -22.700  0.00  0.00    +0.034 C 
ATOM      7  C   UNL     1      -1.774   3.261 -22.005  0.00  0.00    -0.014 C 
ATOM      8  C   UNL     1      -1.860   3.224 -20.713  0.00  0.00    -0.004 C 
ATOM      9  C   UNL     1      -3.023   3.337 -20.112  0.00  0.00    -0.004 C 
ATOM     10  C   UNL     1      -4.120   3.488 -20.788  0.00  0.00    -0.017 C 
ATOM     11  C   UNL     1      -2.841   3.469 -24.375  0.00  0.00    +0.067 C 
ATOM     12  C   UNL     1      -4.124   3.643 -25.069  0.00  0.00    +0.132 C 
ATOM     13  N   UNL     1      -5.109   3.734 -24.444  0.00  0.00    +0.236 N 
ATOM     14  H   UNL     1      -5.747   3.779 -23.649  0.00  0.00    +0.203 HD
ATOM     15  C   UNL     1      -5.824   3.856 -25.544  0.00  0.00    +0.190 C 
ATOM     16  C   UNL     1      -5.112   3.677 -22.860  0.00  0.00    +0.076 C 
ATOM     17  C   UNL     1      -4.076   3.528 -22.045  0.00  0.00    +0.075 C 
ATOM     18  C   UNL     1      -4.979   3.693 -23.714  0.00  0.00    +0.090 C 
ATOM     19  C   UNL     1      -1.732   3.332 -24.132  0.00  0.00    +0.178 A 
ENDROOT
BRANCH   1  21
ATOM     20  C   UNL     1       0.611   4.142 -25.923  0.00  0.00    +0.277 C 
ATOM     21  O   UNL     1      -0.223   3.216 -25.736  0.00  0.00    -0.491 OA
ENDBRANCH   1  21
BRANCH  19  22
ATOM     22  O   UNL     1      -0.725   3.173 -22.941  0.00  0.00    -0.418 OA
BRANCH  22  23
ATOM     23  C   UNL     1       0.264   2.243 -22.622  0.00  0.00    +0.347 A 
ATOM     24  N   UNL     1      -0.001   1.018 -22.350  0.00  0.00    -0.070 NA
ATOM     25  N   UNL     1       1.099   0.418 -22.101  0.00  0.00    -0.019 NA
ATOM     26  N   UNL     1       2.052   1.268 -22.217  0.00  0.00    -0.036 NA
ATOM     27  N   UNL     1       1.536   2.395 -22.539  0.00  0.00    -0.162 N 
BRANCH  27  28
ATOM     28  C   UNL     1       2.222   3.471 -22.736  0.00  0.00    +0.072 A 
ATOM     29  C   UNL     1       1.645   4.615 -22.823  0.00  0.00    +0.028 A 
ATOM     30  C   UNL     1       2.344   5.671 -23.019  0.00  0.00    +0.002 A 
ATOM     31  C   UNL     1       3.620   5.586 -23.127  0.00  0.00    +0.000 A 
ATOM     32  C   UNL     1       4.196   4.444 -23.039  0.00  0.00    +0.002 A 
ATOM     33  C   UNL     1       3.497   3.388 -22.844  0.00  0.00    +0.028 A 
ENDBRANCH  27  28
ENDBRANCH  22  23
ENDBRANCH  19  22
TORSDOF 4
ENDMDL
MODEL 2
REMARK VINA RESULT:   -11.705      1.663      3.684
REMARK INTER + INTRA:         -14.335
REMARK INTER:                 -13.598
REMARK INTRA:                  -0.736
REMARK UNBOUND:                 0.107
REMARK  Name = COc1ccc2c(c1Oc1nnnn1-c1ccccc1)[C@@]13C=CC=C[C@H]1[C@@H](C2)N(C)CC3   ZINC000253504732
REMARK  6 active torsions:
REMARK  status: ('A' for Active; 'I' for Inactive)
REMARK    1  A    between atoms: C_1  and  O_2
REMARK    2  A    between atoms: O_2  and  C_3
REMARK    3  A    between atoms: C_8  and  O_9
REMARK    4  A    between atoms: O_9  and  C_10
REMARK    5  A    between atoms: N_14  and  C_15
REMARK    6  A    between atoms: N_29  and  C_30
REMARK                            x       y       z     vdW  Elec       q    Type
REMARK                         _______ _______ _______ _____ _____    ______ ____
ROOT
ATOM      1  C   UNL     1      -1.960   2.792 -21.289  0.00  0.00    +0.163 A 
ATOM      2  C   UNL     1      -3.105   2.800 -20.758  0.00  0.00    +0.050 A 
ATOM      3  C   UNL     1      -4.112   3.028 -21.486  0.00  0.00    +0.008 A 
ATOM      4  C   UNL     1      -3.916   3.275 -22.915  0.00  0.00    -0.034 A 
ATOM      5  C   UNL     1      -2.923   3.251 -23.288  0.00  0.00    +0.013 A 
ATOM      6  C   UNL     1      -2.576   3.380 -24.158  0.00  0.00    +0.034 C 
ATOM      7  C   UNL     1      -1.397   3.353 -24.604  0.00  0.00    -0.014 C 
ATOM      8  C   UNL     1      -1.177   3.566 -25.863  0.00  0.00    -0.004 C 
ATOM      9  C   UNL     1      -2.170   3.811 -26.688  0.00  0.00    -0.004 C 
ATOM     10  C   UNL     1      -3.399   3.848 -26.272  0.00  0.00    -0.017 C 
ATOM     11  C   UNL     1      -2.994   3.122 -22.555  0.00  0.00    +0.067 C 
ATOM     12  C   UNL     1      -4.409   3.181 -22.162  0.00  0.00    +0.132 C 
ATOM     13  N   UNL     1      -5.222   3.406 -22.973  0.00  0.00    +0.236 N 
ATOM     14  H   UNL     1      -5.657   3.613 -23.872  0.00  0.00    +0.203 HD
ATOM     15  C   UNL     1      -6.178   3.328 -22.069  0.00  0.00    +0.190 C 
ATOM     16  C   UNL     1      -4.853   3.654 -24.494  0.00  0.00    +0.076 C 
ATOM     17  C   UNL     1      -3.651   3.646 -25.056  0.00  0.00    +0.075 C 
ATOM     18  C   UNL     1      -4.924   3.503 -23.645  0.00  0.00    +0.090 C 
ATOM     19  C   UNL     1      -1.855   3.016 -22.553  0.00  0.00    +0.178 A 
ENDROOT
BRANCH   1  21
ATOM     20  C   UNL     1      -0.112   1.489 -20.678  0.00  0.00    +0.277 C 
ATOM     21  O   UNL     1      -0.761   2.570 -20.691  0.00  0.00    -0.491 OA
ENDBRANCH   1  21
BRANCH  19  22
ATOM     22  O   UNL     1      -0.593   3.071 -23.481  0.00  0.00    -0.418 OA
BRANCH  22  23
ATOM     23  C   UNL     1       0.508   3.922 -23.576  0.00  0.00    +0.347 A 
ATOM     24  N   UNL     1       0.403   5.152 -23.923  0.00  0.00    -0.070 NA
ATOM     25  N   UNL     1       1.572   5.667 -23.918  0.00  0.00    -0.019 NA
ATOM     26  N   UNL     1       2.407   4.760 -23.567  0.00  0.00    -0.036 NA
ATOM     27  N   UNL     1       1.749   3.681 -23.356  0.00  0.00    -0.162 N 
BRANCH  27  28
ATOM     28  C   UNL     1       2.291   2.569 -22.986  0.00  0.00    +0.072 A 
ATOM     29  C   UNL     1       2.162   1.506 -23.694  0.00  0.00    +0.028 A 
ATOM     30  C   UNL     1       2.708   0.412 -23.310  0.00  0.00    +0.002 A 
ATOM     31  C   UNL     1       3.381   0.378 -22.218  0.00  0.00    +0.000 A 
ATOM     32  C   UNL     1       3.508   1.440 -21.511  0.00  0.00    +0.002 A 
ATOM     33  C   UNL     1       2.963   2.534 -21.895  0.00  0.00    +0.028 A 
ENDBRANCH  27  28
ENDBRANCH  22  23
ENDBRANCH  19  22
TORSDOF 4
ENDMDL
MODEL 3
REMARK VINA RESULT:   -10.529      1.639      3.521
REMARK INTER + INTRA:         -12.884
REMARK INTER:                 -12.058
REMARK INTRA:                  -0.826
REMARK UNBOUND:                 0.107
REMARK  Name = COc1ccc2c(c1Oc1nnnn1-c1ccccc1)[C@@]13C=CC=C[C@H]1[C@@H](C2)N(C)CC3   ZINC000253504732
REMARK  6 active torsions:
REMARK  status: ('A' for Active; 'I' for Inactive)
REMARK    1  A    between atoms: C_1  and  O_2
REMARK    2  A    between atoms: O_2  and  C_3
REMARK    3  A    between atoms: C_8  and  O_9
REMARK    4  A    between atoms: O_9  and  C_10
REMARK    5  A    between atoms: N_14  and  C_15
REMARK    6  A    between atoms: N_29  and  C_30
REMARK                            x       y       z     vdW  Elec       q    Type
REMARK                         _______ _______ _______ _____ _____    ______ ____
ROOT
ATOM      1  C   UNL     1      -0.042   1.843 -21.490  0.00  0.00    +0.163 A 
ATOM      2  C   UNL     1      -0.991   1.767 -20.660  0.00  0.00    +0.050 A 
ATOM      3  C   UNL     1      -2.145   2.133 -21.020  0.00  0.00    +0.008 A 
ATOM      4  C   UNL     1      -2.342   2.629 -22.382  0.00  0.00    -0.034 A 
ATOM      5  C   UNL     1      -1.497   2.663 -23.022  0.00  0.00    +0.013 A 
ATOM      6  C   UNL     1      -1.400   2.942 -23.920  0.00  0.00    +0.034 C 
ATOM      7  C   UNL     1      -0.396   2.983 -24.682  0.00  0.00    -0.014 C 
ATOM      8  C   UNL     1      -0.524   3.415 -25.897  0.00  0.00    -0.004 C 
ATOM      9  C   UNL     1      -1.692   3.814 -26.349  0.00  0.00    -0.004 C 
ATOM     10  C   UNL     1      -2.750   3.789 -25.599  0.00  0.00    -0.017 C 
ATOM     11  C   UNL     1      -1.367   2.405 -22.332  0.00  0.00    +0.067 C 
ATOM     12  C   UNL     1      -2.609   2.407 -21.547  0.00  0.00    +0.132 C 
ATOM     13  N   UNL     1      -3.601   2.782 -22.040  0.00  0.00    +0.236 N 
ATOM     14  H   UNL     1      -4.257   3.152 -22.729  0.00  0.00    +0.203 HD
ATOM     15  C   UNL     1      -4.270   2.553 -20.928  0.00  0.00    +0.190 C 
ATOM     16  C   UNL     1      -3.658   3.295 -23.539  0.00  0.00    +0.076 C 
ATOM     17  C   UNL     1      -2.664   3.375 -24.414  0.00  0.00    +0.075 C 
ATOM     18  C   UNL     1      -3.498   2.995 -22.744  0.00  0.00    +0.090 C 
ATOM     19  C   UNL     1      -0.282   2.289 -22.673  0.00  0.00    +0.178 A 
ENDROOT
BRANCH   1  21
ATOM     20  C   UNL     1       1.889   1.487 -20.214  0.00  0.00    +0.277 C 
ATOM     21  O   UNL     1       1.260   1.505 -21.306  0.00  0.00    -0.491 OA
ENDBRANCH   1  21
BRANCH  19  22
ATOM     22  O   UNL     1       0.670   2.496 -23.901  0.00  0.00    -0.418 OA
BRANCH  22  23
ATOM     23  C   UNL     1       1.986   2.130 -24.183  0.00  0.00    +0.347 A 
ATOM     24  N   UNL     1       2.296   0.988 -24.679  0.00  0.00    -0.070 NA
ATOM     25  N   UNL     1       3.564   0.948 -24.823  0.00  0.00    -0.019 NA
ATOM     26  N   UNL     1       4.048   2.064 -24.418  0.00  0.00    -0.036 NA
ATOM     27  N   UNL     1       3.073   2.794 -24.022  0.00  0.00    -0.162 N 
BRANCH  27  28
ATOM     28  C   UNL     1       3.213   3.988 -23.550  0.00  0.00    +0.072 A 
ATOM     29  C   UNL     1       2.218   4.798 -23.499  0.00  0.00    +0.028 A 
ATOM     30  C   UNL     1       2.378   5.978 -23.027  0.00  0.00    +0.002 A 
ATOM     31  C   UNL     1       3.531   6.352 -22.605  0.00  0.00    +0.000 A 
ATOM     32  C   UNL     1       4.524   5.542 -22.656  0.00  0.00    +0.002 A 
ATOM     33  C   UNL     1       4.364   4.362 -23.128  0.00  0.00    +0.028 A 
ENDBRANCH  27  28
ENDBRANCH  22  23
ENDBRANCH  19  22
TORSDOF 4
ENDMDL
MODEL 4
REMARK VINA RESULT:   -10.163      3.699      6.529
REMARK INTER + INTRA:         -12.432
REMARK INTER:                 -11.041
REMARK INTRA:                  -1.391
REMARK UNBOUND:                 0.107
REMARK  Name = COc1ccc2c(c1Oc1nnnn1-c1ccccc1)[C@@]13C=CC=C[C@H]1[C@@H](C2)N(C)CC3   ZINC000253504732
REMARK  6 active torsions:
REMARK  status: ('A' for Active; 'I' for Inactive)
REMARK    1  A    between atoms: C_1  and  O_2
REMARK    2  A    between atoms: O_2  and  C_3
REMARK    3  A    between atoms: C_8  and  O_9
REMARK    4  A    between atoms: O_9  and  C_10
REMARK    5  A    between atoms: N_14  and  C_15
REMARK    6  A    between atoms: N_29  and  C_30
REMARK                            x       y       z     vdW  Elec       q    Type
REMARK                         _______ _______ _______ _____ _____    ______ ____
ROOT
ATOM      1  C   UNL     1       3.697   5.697 -22.794  0.00  0.00    +0.163 A 
ATOM      2  C   UNL     1       2.557   6.016 -23.235  0.00  0.00    +0.050 A 
ATOM      3  C   UNL     1       1.712   5.103 -23.454  0.00  0.00    +0.008 A 
ATOM      4  C   UNL     1       2.081   3.712 -23.190  0.00  0.00    -0.034 A 
ATOM      5  C   UNL     1       3.057   3.523 -22.820  0.00  0.00    +0.013 A 
ATOM      6  C   UNL     1       3.495   2.718 -22.587  0.00  0.00    +0.034 C 
ATOM      7  C   UNL     1       4.655   2.490 -22.147  0.00  0.00    -0.014 C 
ATOM      8  C   UNL     1       5.025   1.273 -21.900  0.00  0.00    -0.004 C 
ATOM      9  C   UNL     1       4.204   0.267 -22.101  0.00  0.00    -0.004 C 
ATOM     10  C   UNL     1       3.003   0.455 -22.552  0.00  0.00    -0.017 C 
ATOM     11  C   UNL     1       2.896   4.242 -22.946  0.00  0.00    +0.067 C 
ATOM     12  C   UNL     1       1.523   4.373 -23.454  0.00  0.00    +0.132 C 
ATOM     13  N   UNL     1       0.869   3.414 -23.599  0.00  0.00    +0.236 N 
ATOM     14  H   UNL     1       0.580   2.436 -23.612  0.00  0.00    +0.203 HD
ATOM     15  C   UNL     1      -0.142   4.140 -24.032  0.00  0.00    +0.190 C 
ATOM     16  C   UNL     1       1.412   1.963 -23.267  0.00  0.00    +0.076 C 
ATOM     17  C   UNL     1       2.608   1.623 -22.804  0.00  0.00    +0.075 C 
ATOM     18  C   UNL     1       1.235   2.797 -23.409  0.00  0.00    +0.090 C 
ATOM     19  C   UNL     1       3.959   4.454 -22.583  0.00  0.00    +0.178 A 
ENDROOT
BRANCH   1  21
ATOM     20  C   UNL     1       4.709   7.535 -21.755  0.00  0.00    +0.277 C 
ATOM     21  O   UNL     1       4.739   6.515 -22.495  0.00  0.00    -0.491 OA
ENDBRANCH   1  21
BRANCH  19  22
ATOM     22  O   UNL     1       5.259   3.759 -22.049  0.00  0.00    -0.418 OA
BRANCH  22  23
ATOM     23  C   UNL     1       6.433   4.220 -21.453  0.00  0.00    +0.347 A 
ATOM     24  N   UNL     1       6.537   4.415 -20.190  0.00  0.00    -0.070 NA
ATOM     25  N   UNL     1       7.719   4.834 -19.948  0.00  0.00    -0.019 NA
ATOM     26  N   UNL     1       8.354   4.901 -21.059  0.00  0.00    -0.036 NA
ATOM     27  N   UNL     1       7.559   4.521 -21.990  0.00  0.00    -0.162 N 
BRANCH  27  28
ATOM     28  C   UNL     1       7.885   4.469 -23.238  0.00  0.00    +0.072 A 
ATOM     29  C   UNL     1       8.097   3.343 -23.818  0.00  0.00    +0.028 A 
ATOM     30  C   UNL     1       8.419   3.313 -25.057  0.00  0.00    +0.002 A 
ATOM     31  C   UNL     1       8.530   4.405 -25.720  0.00  0.00    +0.000 A 
ATOM     32  C   UNL     1       8.319   5.530 -25.140  0.00  0.00    +0.002 A 
ATOM     33  C   UNL     1       7.996   5.561 -23.901  0.00  0.00    +0.028 A 
ENDBRANCH  27  28
ENDBRANCH  22  23
ENDBRANCH  19  22
TORSDOF 4
ENDMDL
MODEL 5
REMARK VINA RESULT:    -9.942      3.407      6.007
REMARK INTER + INTRA:         -12.160
REMARK INTER:                 -11.037
REMARK INTRA:                  -1.123
REMARK UNBOUND:                 0.107
REMARK  Name = COc1ccc2c(c1Oc1nnnn1-c1ccccc1)[C@@]13C=CC=C[C@H]1[C@@H](C2)N(C)CC3   ZINC000253504732
REMARK  6 active torsions:
REMARK  status: ('A' for Active; 'I' for Inactive)
REMARK    1  A    between atoms: C_1  and  O_2
REMARK    2  A    between atoms: O_2  and  C_3
REMARK    3  A    between atoms: C_8  and  O_9
REMARK    4  A    between atoms: O_9  and  C_10
REMARK    5  A    between atoms: N_14  and  C_15
REMARK    6  A    between atoms: N_29  and  C_30
REMARK                            x       y       z     vdW  Elec       q    Type
REMARK                         _______ _______ _______ _____ _____    ______ ____
ROOT
ATOM      1  C   UNL     1       2.405   5.135 -23.213  0.00  0.00    +0.163 A 
ATOM      2  C   UNL     1       1.182   4.980 -23.490  0.00  0.00    +0.050 A 
ATOM      3  C   UNL     1       0.653   3.849 -23.296  0.00  0.00    +0.008 A 
ATOM      4  C   UNL     1       1.472   2.763 -22.758  0.00  0.00    -0.034 A 
ATOM      5  C   UNL     1       2.491   2.969 -22.550  0.00  0.00    +0.013 A 
ATOM      6  C   UNL     1       3.185   2.426 -22.206  0.00  0.00    +0.034 C 
ATOM      7  C   UNL     1       4.397   2.669 -21.958  0.00  0.00    -0.014 C 
ATOM      8  C   UNL     1       5.158   1.737 -21.481  0.00  0.00    -0.004 C 
ATOM      9  C   UNL     1       4.685   0.533 -21.251  0.00  0.00    -0.004 C 
ATOM     10  C   UNL     1       3.444   0.239 -21.491  0.00  0.00    -0.017 C 
ATOM     11  C   UNL     1       2.097   3.542 -22.824  0.00  0.00    +0.067 C 
ATOM     12  C   UNL     1       0.707   3.133 -23.070  0.00  0.00    +0.132 C 
ATOM     13  N   UNL     1       0.381   2.035 -22.832  0.00  0.00    +0.236 N 
ATOM     14  H   UNL     1       0.418   1.059 -22.533  0.00  0.00    +0.203 HD
ATOM     15  C   UNL     1      -0.849   2.288 -23.231  0.00  0.00    +0.190 C 
ATOM     16  C   UNL     1       1.390   0.961 -22.248  0.00  0.00    +0.076 C 
ATOM     17  C   UNL     1       2.674   1.119 -21.955  0.00  0.00    +0.075 C 
ATOM     18  C   UNL     1       0.942   1.630 -22.564  0.00  0.00    +0.090 C 
ATOM     19  C   UNL     1       3.070   4.138 -22.743  0.00  0.00    +0.178 A 
ENDROOT
BRANCH   1  21
ATOM     20  C   UNL     1       3.502   7.048 -22.427  0.00  0.00    +0.277 C 
ATOM     21  O   UNL     1       3.158   6.257 -23.346  0.00  0.00    -0.491 OA
ENDBRANCH   1  21
BRANCH  19  22
ATOM     22  O   UNL     1       4.573   4.022 -22.311  0.00  0.00    -0.418 OA
BRANCH  22  23
ATOM     23  C   UNL     1       5.784   4.009 -23.003  0.00  0.00    +0.347 A 
ATOM     24  N   UNL     1       5.942   3.381 -24.110  0.00  0.00    -0.070 NA
ATOM     25  N   UNL     1       7.147   3.553 -24.497  0.00  0.00    -0.019 NA
ATOM     26  N   UNL     1       7.742   4.289 -23.632  0.00  0.00    -0.036 NA
ATOM     27  N   UNL     1       6.900   4.571 -22.709  0.00  0.00    -0.162 N 
BRANCH  27  28
ATOM     28  C   UNL     1       7.177   5.299 -21.679  0.00  0.00    +0.072 A 
ATOM     29  C   UNL     1       6.874   6.546 -21.653  0.00  0.00    +0.028 A 
ATOM     30  C   UNL     1       7.157   7.253 -20.623  0.00  0.00    +0.002 A 
ATOM     31  C   UNL     1       7.745   6.715 -19.617  0.00  0.00    +0.000 A 
ATOM     32  C   UNL     1       8.048   5.469 -19.643  0.00  0.00    +0.002 A 
ATOM     33  C   UNL     1       7.764   4.763 -20.674  0.00  0.00    +0.028 A 
ENDBRANCH  27  28
ENDBRANCH  22  23
ENDBRANCH  19  22
TORSDOF 4
ENDMDL
MODEL 6
REMARK VINA RESULT:    -9.103      1.943      3.980
REMARK INTER + INTRA:         -11.124
REMARK INTER:                 -10.928
REMARK INTRA:                  -0.196
REMARK UNBOUND:                 0.107
REMARK  Name = COc1ccc2c(c1Oc1nnnn1-c1ccccc1)[C@@]13C=CC=C[C@H]1[C@@H](C2)N(C)CC3   ZINC000253504732
REMARK  6 active torsions:
REMARK  status: ('A' for Active; 'I' for Inactive)
REMARK    1  A    between atoms: C_1  and  O_2
REMARK    2  A    between atoms: O_2  and  C_3
REMARK    3  A    between atoms: C_8  and  O_9
REMARK    4  A    between atoms: O_9  and  C_10
REMARK    5  A    between atoms: N_14  and  C_15
REMARK    6  A    between atoms: N_29  and  C_30
REMARK                            x       y       z     vdW  Elec       q    Type
REMARK                         _______ _______ _______ _____ _____    ______ ____
ROOT
ATOM      1  C   UNL     1      -0.321   1.700 -21.141  0.00  0.00    +0.163 A 
ATOM      2  C   UNL     1      -1.572   1.703 -20.968  0.00  0.00    +0.050 A 
ATOM      3  C   UNL     1      -2.303   2.285 -21.819  0.00  0.00    +0.008 A 
ATOM      4  C   UNL     1      -1.676   2.932 -22.971  0.00  0.00    -0.034 A 
ATOM      5  C   UNL     1      -0.618   2.887 -23.048  0.00  0.00    +0.013 A 
ATOM      6  C   UNL     1      -0.020   3.230 -23.696  0.00  0.00    +0.034 C 
ATOM      7  C   UNL     1       1.236   3.178 -23.789  0.00  0.00    -0.014 C 
ATOM      8  C   UNL     1       1.833   3.737 -24.793  0.00  0.00    -0.004 C 
ATOM      9  C   UNL     1       1.146   4.362 -25.722  0.00  0.00    -0.004 C 
ATOM     10  C   UNL     1      -0.148   4.440 -25.666  0.00  0.00    -0.017 C 
ATOM     11  C   UNL     1      -0.912   2.548 -22.450  0.00  0.00    +0.067 C 
ATOM     12  C   UNL     1      -2.375   2.679 -22.457  0.00  0.00    +0.132 C 
ATOM     13  N   UNL     1      -2.897   3.257 -23.331  0.00  0.00    +0.236 N 
ATOM     14  H   UNL     1      -3.032   3.791 -24.189  0.00  0.00    +0.203 HD
ATOM     15  C   UNL     1      -4.083   3.036 -22.800  0.00  0.00    +0.190 C 
ATOM     16  C   UNL     1      -2.077   3.910 -24.520  0.00  0.00    +0.076 C 
ATOM     17  C   UNL     1      -0.763   3.909 -24.705  0.00  0.00    +0.075 C 
ATOM     18  C   UNL     1      -2.406   3.515 -23.824  0.00  0.00    +0.090 C 
ATOM     19  C   UNL     1       0.168   2.289 -22.176  0.00  0.00    +0.178 A 
ENDROOT
BRANCH   1  21
ATOM     20  C   UNL     1       1.664   1.701 -19.899  0.00  0.00    +0.277 C 
ATOM     21  O   UNL     1       0.632   1.138 -20.353  0.00  0.00    -0.491 OA
ENDBRANCH   1  21
BRANCH  19  22
ATOM     22  O   UNL     1       1.652   2.452 -22.655  0.00  0.00    -0.418 OA
BRANCH  22  23
ATOM     23  C   UNL     1       2.511   1.679 -23.436  0.00  0.00    +0.347 A 
ATOM     24  N   UNL     1       2.088   0.851 -24.319  0.00  0.00    -0.070 NA
ATOM     25  N   UNL     1       3.101   0.298 -24.864  0.00  0.00    -0.019 NA
ATOM     26  N   UNL     1       4.159   0.780 -24.324  0.00  0.00    -0.036 NA
ATOM     27  N   UNL     1       3.794   1.634 -23.440  0.00  0.00    -0.162 N 
BRANCH  27  28
ATOM     28  C   UNL     1       4.617   2.307 -22.707  0.00  0.00    +0.072 A 
ATOM     29  C   UNL     1       4.902   1.925 -21.515  0.00  0.00    +0.028 A 
ATOM     30  C   UNL     1       5.721   2.606 -20.803  0.00  0.00    +0.002 A 
ATOM     31  C   UNL     1       6.256   3.670 -21.280  0.00  0.00    +0.000 A 
ATOM     32  C   UNL     1       5.970   4.052 -22.471  0.00  0.00    +0.002 A 
ATOM     33  C   UNL     1       5.152   3.371 -23.183  0.00  0.00    +0.028 A 
ENDBRANCH  27  28
ENDBRANCH  22  23
ENDBRANCH  19  22
TORSDOF 4
ENDMDL
