MODEL 1
REMARK VINA RESULT:   -11.091      0.000      0.000
REMARK INTER + INTRA:         -12.628
REMARK INTER:                 -12.766
REMARK INTRA:                   0.138
REMARK UNBOUND:                 0.084
REMARK  Name = CC[C@]1(O)CC[C@@H]2[C@@H]3CC=C4C[C@H](O)CC[C@]4(C)[C@@H]3CC[C@@]21C  ZINC000253504217
REMARK  6 active torsions:
REMARK  status: ('A' for Active; 'I' for Inactive)
REMARK    1  A    between atoms: C_1  and  C_2
REMARK    2  A    between atoms: C_2  and  C_3
REMARK    3  A    between atoms: C_3  and  O_4
REMARK    4  A    between atoms: C_13  and  O_14
REMARK    5  A    between atoms: C_17  and  C_18
REMARK    6  A    between atoms: C_22  and  C_23
REMARK                            x       y       z     vdW  Elec       q    Type
REMARK                         _______ _______ _______ _____ _____    ______ ____
ROOT
ATOM      1  C   UNL     1      -4.380   3.279 -22.590  0.00  0.00    +0.071 C 
ATOM      2  C   UNL     1      -4.438   2.774 -21.381  0.00  0.00    +0.035 C 
ATOM      3  C   UNL     1      -3.238   2.346 -21.065  0.00  0.00    +0.007 C 
ATOM      4  C   UNL     1      -2.440   2.588 -22.076  0.00  0.00    +0.001 C 
ATOM      5  C   UNL     1      -1.164   2.356 -22.258  0.00  0.00    +0.000 C 
ATOM      6  C   UNL     1      -0.462   1.778 -21.310  0.00  0.00    +0.031 C 
ATOM      7  C   UNL     1       0.816   1.546 -21.491  0.00  0.00    -0.027 C 
ATOM      8  C   UNL     1       1.393   1.890 -22.616  0.00  0.00    -0.065 C 
ATOM      9  C   UNL     1       2.671   1.658 -22.798  0.00  0.00    +0.062 C 
ATOM     10  C   UNL     1       3.248   2.002 -23.923  0.00  0.00    +0.119 C 
ATOM     11  C   UNL     1       2.549   2.580 -24.872  0.00  0.00    +0.032 C 
ATOM     12  C   UNL     1       1.268   2.812 -24.689  0.00  0.00    +0.014 C 
ATOM     13  C   UNL     1       0.692   2.468 -23.564  0.00  0.00    -0.008 C 
ATOM     14  C   UNL     1      -0.010   3.046 -24.511  0.00  0.00    +0.016 C 
ATOM     15  C   UNL     1      -0.586   2.701 -23.384  0.00  0.00    +0.003 C 
ATOM     16  C   UNL     1      -1.289   3.279 -24.331  0.00  0.00    +0.005 C 
ATOM     17  C   UNL     1      -2.567   3.510 -24.149  0.00  0.00    +0.010 C 
ATOM     18  C   UNL     1      -3.144   3.166 -23.024  0.00  0.00    -0.000 C 
ATOM     19  C   UNL     1      -3.870   3.732 -23.930  0.00  0.00    +0.014 C 
ENDROOT
BRANCH   1  21
ATOM     20  C   UNL     1      -6.385   2.626 -21.716  0.00  0.00    +0.007 C 
ATOM     21  C   UNL     1      -5.662   3.494 -22.364  0.00  0.00    +0.032 C 
ENDBRANCH   1  21
BRANCH  10  22
ATOM     22  O   UNL     1       4.528   1.770 -24.104  0.00  0.00    -0.391 OA
ATOM     23  H   UNL     1       4.851   2.299 -24.850  0.00  0.00    +0.210 HD
ENDBRANCH  10  22
BRANCH   1  24
ATOM     24  O   UNL     1      -4.663   3.725 -23.465  0.00  0.00    -0.388 OA
ATOM     25  H   UNL     1      -4.385   4.654 -23.459  0.00  0.00    +0.210 HD
ENDBRANCH   1  24
TORSDOF 3
ENDMDL
MODEL 2
REMARK VINA RESULT:   -10.948      0.943      6.513
REMARK INTER + INTRA:         -12.464
REMARK INTER:                 -12.520
REMARK INTRA:                   0.056
REMARK UNBOUND:                 0.084
REMARK  Name = CC[C@]1(O)CC[C@@H]2[C@@H]3CC=C4C[C@H](O)CC[C@]4(C)[C@@H]3CC[C@@]21C  ZINC000253504217
REMARK  6 active torsions:
REMARK  status: ('A' for Active; 'I' for Inactive)
REMARK    1  A    between atoms: C_1  and  C_2
REMARK    2  A    between atoms: C_2  and  C_3
REMARK    3  A    between atoms: C_3  and  O_4
REMARK    4  A    between atoms: C_13  and  O_14
REMARK    5  A    between atoms: C_17  and  C_18
REMARK    6  A    between atoms: C_22  and  C_23
REMARK                            x       y       z     vdW  Elec       q    Type
REMARK                         _______ _______ _______ _____ _____    ______ ____
ROOT
ATOM      1  C   UNL     1       2.465   2.131 -23.528  0.00  0.00    +0.071 C 
ATOM      2  C   UNL     1       2.516   2.653 -24.729  0.00  0.00    +0.035 C 
ATOM      3  C   UNL     1       1.309   3.060 -25.044  0.00  0.00    +0.007 C 
ATOM      4  C   UNL     1       0.513   2.790 -24.038  0.00  0.00    +0.001 C 
ATOM      5  C   UNL     1      -0.768   2.993 -23.857  0.00  0.00    +0.000 C 
ATOM      6  C   UNL     1      -1.479   3.569 -24.799  0.00  0.00    +0.031 C 
ATOM      7  C   UNL     1      -2.762   3.773 -24.619  0.00  0.00    -0.027 C 
ATOM      8  C   UNL     1      -3.334   3.403 -23.500  0.00  0.00    -0.065 C 
ATOM      9  C   UNL     1      -4.618   3.606 -23.319  0.00  0.00    +0.062 C 
ATOM     10  C   UNL     1      -5.190   3.236 -22.200  0.00  0.00    +0.119 C 
ATOM     11  C   UNL     1      -4.482   2.660 -21.256  0.00  0.00    +0.032 C 
ATOM     12  C   UNL     1      -3.197   2.456 -21.439  0.00  0.00    +0.014 C 
ATOM     13  C   UNL     1      -2.625   2.827 -22.557  0.00  0.00    -0.008 C 
ATOM     14  C   UNL     1      -1.914   2.251 -21.617  0.00  0.00    +0.016 C 
ATOM     15  C   UNL     1      -1.342   2.622 -22.737  0.00  0.00    +0.003 C 
ATOM     16  C   UNL     1      -0.630   2.046 -21.795  0.00  0.00    +0.005 C 
ATOM     17  C   UNL     1       0.653   1.843 -21.977  0.00  0.00    +0.010 C 
ATOM     18  C   UNL     1       1.226   2.213 -23.096  0.00  0.00    -0.000 C 
ATOM     19  C   UNL     1       1.961   1.650 -22.195  0.00  0.00    +0.014 C 
ENDROOT
BRANCH   1  21
ATOM     20  C   UNL     1       4.594   2.937 -23.698  0.00  0.00    +0.007 C 
ATOM     21  C   UNL     1       3.752   1.945 -23.752  0.00  0.00    +0.032 C 
ENDBRANCH   1  21
BRANCH  10  22
ATOM     22  O   UNL     1      -6.476   3.441 -22.020  0.00  0.00    -0.391 OA
ATOM     23  H   UNL     1      -6.916   2.595 -21.845  0.00  0.00    +0.210 HD
ENDBRANCH  10  22
BRANCH   1  24
ATOM     24  O   UNL     1       2.755   1.680 -22.658  0.00  0.00    -0.388 OA
ATOM     25  H   UNL     1       3.572   1.179 -22.810  0.00  0.00    +0.210 HD
ENDBRANCH   1  24
TORSDOF 3
ENDMDL
MODEL 3
REMARK VINA RESULT:   -10.745      0.972      2.512
REMARK INTER + INTRA:         -12.232
REMARK INTER:                 -12.438
REMARK INTRA:                   0.207
REMARK UNBOUND:                 0.084
REMARK  Name = CC[C@]1(O)CC[C@@H]2[C@@H]3CC=C4C[C@H](O)CC[C@]4(C)[C@@H]3CC[C@@]21C  ZINC000253504217
REMARK  6 active torsions:
REMARK  status: ('A' for Active; 'I' for Inactive)
REMARK    1  A    between atoms: C_1  and  C_2
REMARK    2  A    between atoms: C_2  and  C_3
REMARK    3  A    between atoms: C_3  and  O_4
REMARK    4  A    between atoms: C_13  and  O_14
REMARK    5  A    between atoms: C_17  and  C_18
REMARK    6  A    between atoms: C_22  and  C_23
REMARK                            x       y       z     vdW  Elec       q    Type
REMARK                         _______ _______ _______ _____ _____    ______ ____
ROOT
ATOM      1  C   UNL     1      -3.539   3.202 -22.572  0.00  0.00    +0.071 C 
ATOM      2  C   UNL     1      -3.608   3.768 -23.752  0.00  0.00    +0.035 C 
ATOM      3  C   UNL     1      -2.424   3.682 -24.311  0.00  0.00    +0.007 C 
ATOM      4  C   UNL     1      -1.623   3.065 -23.477  0.00  0.00    +0.001 C 
ATOM      5  C   UNL     1      -0.359   2.735 -23.559  0.00  0.00    +0.000 C 
ATOM      6  C   UNL     1       0.327   3.035 -24.639  0.00  0.00    +0.031 C 
ATOM      7  C   UNL     1       1.593   2.706 -24.722  0.00  0.00    -0.027 C 
ATOM      8  C   UNL     1       2.175   2.079 -23.730  0.00  0.00    -0.065 C 
ATOM      9  C   UNL     1       3.442   1.749 -23.813  0.00  0.00    +0.062 C 
ATOM     10  C   UNL     1       4.024   1.122 -22.821  0.00  0.00    +0.119 C 
ATOM     11  C   UNL     1       3.342   0.821 -21.740  0.00  0.00    +0.032 C 
ATOM     12  C   UNL     1       2.073   1.151 -21.658  0.00  0.00    +0.014 C 
ATOM     13  C   UNL     1       1.491   1.778 -22.650  0.00  0.00    -0.008 C 
ATOM     14  C   UNL     1       0.805   1.479 -21.572  0.00  0.00    +0.016 C 
ATOM     15  C   UNL     1       0.224   2.107 -22.566  0.00  0.00    +0.003 C 
ATOM     16  C   UNL     1      -0.463   1.808 -21.487  0.00  0.00    +0.005 C 
ATOM     17  C   UNL     1      -1.729   2.138 -21.405  0.00  0.00    +0.010 C 
ATOM     18  C   UNL     1      -2.311   2.765 -22.397  0.00  0.00    -0.000 C 
ATOM     19  C   UNL     1      -3.021   2.489 -21.353  0.00  0.00    +0.014 C 
ENDROOT
BRANCH   1  21
ATOM     20  C   UNL     1      -5.483   3.772 -23.624  0.00  0.00    +0.007 C 
ATOM     21  C   UNL     1      -4.811   3.553 -22.531  0.00  0.00    +0.032 C 
ENDBRANCH   1  21
BRANCH  10  22
ATOM     22  O   UNL     1       5.293   0.792 -22.905  0.00  0.00    -0.391 OA
ATOM     23  H   UNL     1       5.490   0.097 -22.259  0.00  0.00    +0.210 HD
ENDBRANCH  10  22
BRANCH   1  24
ATOM     24  O   UNL     1      -3.810   2.855 -21.650  0.00  0.00    -0.388 OA
ATOM     25  H   UNL     1      -4.332   3.532 -21.191  0.00  0.00    +0.210 HD
ENDBRANCH   1  24
TORSDOF 3
ENDMDL
MODEL 4
REMARK VINA RESULT:    -9.900      1.543      6.204
REMARK INTER + INTRA:         -11.263
REMARK INTER:                 -11.411
REMARK INTRA:                   0.148
REMARK UNBOUND:                 0.084
REMARK  Name = CC[C@]1(O)CC[C@@H]2[C@@H]3CC=C4C[C@H](O)CC[C@]4(C)[C@@H]3CC[C@@]21C  ZINC000253504217
REMARK  6 active torsions:
REMARK  status: ('A' for Active; 'I' for Inactive)
REMARK    1  A    between atoms: C_1  and  C_2
REMARK    2  A    between atoms: C_2  and  C_3
REMARK    3  A    between atoms: C_3  and  O_4
REMARK    4  A    between atoms: C_13  and  O_14
REMARK    5  A    between atoms: C_17  and  C_18
REMARK    6  A    between atoms: C_22  and  C_23
REMARK                            x       y       z     vdW  Elec       q    Type
REMARK                         _______ _______ _______ _____ _____    ______ ____
ROOT
ATOM      1  C   UNL     1       2.261   1.502 -21.436  0.00  0.00    +0.071 C 
ATOM      2  C   UNL     1       3.089   1.757 -22.420  0.00  0.00    +0.035 C 
ATOM      3  C   UNL     1       2.396   2.279 -23.406  0.00  0.00    +0.007 C 
ATOM      4  C   UNL     1       1.142   2.346 -23.031  0.00  0.00    +0.001 C 
ATOM      5  C   UNL     1       0.068   2.781 -23.641  0.00  0.00    +0.000 C 
ATOM      6  C   UNL     1       0.158   3.261 -24.861  0.00  0.00    +0.031 C 
ATOM      7  C   UNL     1      -0.916   3.698 -25.473  0.00  0.00    -0.027 C 
ATOM      8  C   UNL     1      -2.078   3.656 -24.869  0.00  0.00    -0.065 C 
ATOM      9  C   UNL     1      -3.154   4.092 -25.481  0.00  0.00    +0.062 C 
ATOM     10  C   UNL     1      -4.316   4.050 -24.878  0.00  0.00    +0.119 C 
ATOM     11  C   UNL     1      -4.409   3.571 -23.659  0.00  0.00    +0.032 C 
ATOM     12  C   UNL     1      -3.331   3.134 -23.047  0.00  0.00    +0.014 C 
ATOM     13  C   UNL     1      -2.169   3.176 -23.650  0.00  0.00    -0.008 C 
ATOM     14  C   UNL     1      -2.258   2.697 -22.432  0.00  0.00    +0.016 C 
ATOM     15  C   UNL     1      -1.095   2.740 -23.038  0.00  0.00    +0.003 C 
ATOM     16  C   UNL     1      -1.184   2.260 -21.818  0.00  0.00    +0.005 C 
ATOM     17  C   UNL     1      -0.108   1.823 -21.207  0.00  0.00    +0.010 C 
ATOM     18  C   UNL     1       1.054   1.865 -21.810  0.00  0.00    -0.000 C 
ATOM     19  C   UNL     1       1.010   1.386 -20.611  0.00  0.00    +0.014 C 
ENDROOT
BRANCH   1  21
ATOM     20  C   UNL     1       4.507   1.669 -21.065  0.00  0.00    +0.007 C 
ATOM     21  C   UNL     1       3.368   1.074 -20.859  0.00  0.00    +0.032 C 
ENDBRANCH   1  21
BRANCH  10  22
ATOM     22  O   UNL     1      -5.392   4.488 -25.491  0.00  0.00    -0.391 OA
ATOM     23  H   UNL     1      -5.887   3.736 -25.851  0.00  0.00    +0.210 HD
ENDBRANCH  10  22
BRANCH   1  24
ATOM     24  O   UNL     1       1.905   1.196 -20.529  0.00  0.00    -0.388 OA
ATOM     25  H   UNL     1       1.955   0.229 -20.472  0.00  0.00    +0.210 HD
ENDBRANCH   1  24
TORSDOF 3
ENDMDL
MODEL 5
REMARK VINA RESULT:    -9.791      1.856      2.901
REMARK INTER + INTRA:         -11.138
REMARK INTER:                 -11.225
REMARK INTRA:                   0.087
REMARK UNBOUND:                 0.084
REMARK  Name = CC[C@]1(O)CC[C@@H]2[C@@H]3CC=C4C[C@H](O)CC[C@]4(C)[C@@H]3CC[C@@]21C  ZINC000253504217
REMARK  6 active torsions:
REMARK  status: ('A' for Active; 'I' for Inactive)
REMARK    1  A    between atoms: C_1  and  C_2
REMARK    2  A    between atoms: C_2  and  C_3
REMARK    3  A    between atoms: C_3  and  O_4
REMARK    4  A    between atoms: C_13  and  O_14
REMARK    5  A    between atoms: C_17  and  C_18
REMARK    6  A    between atoms: C_22  and  C_23
REMARK                            x       y       z     vdW  Elec       q    Type
REMARK                         _______ _______ _______ _____ _____    ______ ____
ROOT
ATOM      1  C   UNL     1      -1.748   3.684 -22.783  0.00  0.00    +0.071 C 
ATOM      2  C   UNL     1      -2.091   2.547 -22.227  0.00  0.00    +0.035 C 
ATOM      3  C   UNL     1      -0.994   1.865 -21.994  0.00  0.00    +0.007 C 
ATOM      4  C   UNL     1       0.025   2.580 -22.405  0.00  0.00    +0.001 C 
ATOM      5  C   UNL     1       1.315   2.351 -22.397  0.00  0.00    +0.000 C 
ATOM      6  C   UNL     1       1.776   1.223 -21.907  0.00  0.00    +0.031 C 
ATOM      7  C   UNL     1       3.067   0.993 -21.899  0.00  0.00    -0.027 C 
ATOM      8  C   UNL     1       3.896   1.886 -22.378  0.00  0.00    -0.065 C 
ATOM      9  C   UNL     1       5.188   1.657 -22.370  0.00  0.00    +0.062 C 
ATOM     10  C   UNL     1       6.017   2.550 -22.849  0.00  0.00    +0.119 C 
ATOM     11  C   UNL     1       5.559   3.679 -23.339  0.00  0.00    +0.032 C 
ATOM     12  C   UNL     1       4.265   3.908 -23.347  0.00  0.00    +0.014 C 
ATOM     13  C   UNL     1       3.436   3.015 -22.868  0.00  0.00    -0.008 C 
ATOM     14  C   UNL     1       2.974   4.141 -23.356  0.00  0.00    +0.016 C 
ATOM     15  C   UNL     1       2.145   3.245 -22.876  0.00  0.00    +0.003 C 
ATOM     16  C   UNL     1       1.683   4.374 -23.366  0.00  0.00    +0.005 C 
ATOM     17  C   UNL     1       0.391   4.603 -23.373  0.00  0.00    +0.010 C 
ATOM     18  C   UNL     1      -0.438   3.709 -22.894  0.00  0.00    -0.000 C 
ATOM     19  C   UNL     1      -0.933   4.805 -23.366  0.00  0.00    +0.014 C 
ENDROOT
BRANCH   1  21
ATOM     20  C   UNL     1      -3.813   3.382 -23.707  0.00  0.00    +0.007 C 
ATOM     21  C   UNL     1      -3.054   3.873 -22.771  0.00  0.00    +0.032 C 
ENDBRANCH   1  21
BRANCH  10  22
ATOM     22  O   UNL     1       7.311   2.319 -22.841  0.00  0.00    -0.391 OA
ATOM     23  H   UNL     1       7.787   3.140 -23.039  0.00  0.00    +0.210 HD
ENDBRANCH  10  22
BRANCH   1  24
ATOM     24  O   UNL     1      -1.818   4.610 -23.208  0.00  0.00    -0.388 OA
ATOM     25  H   UNL     1      -0.929   4.933 -23.427  0.00  0.00    +0.210 HD
ENDBRANCH   1  24
TORSDOF 3
ENDMDL
MODEL 6
REMARK VINA RESULT:    -9.686      1.527      6.750
REMARK INTER + INTRA:         -11.018
REMARK INTER:                 -11.273
REMARK INTRA:                   0.255
REMARK UNBOUND:                 0.084
REMARK  Name = CC[C@]1(O)CC[C@@H]2[C@@H]3CC=C4C[C@H](O)CC[C@]4(C)[C@@H]3CC[C@@]21C  ZINC000253504217
REMARK  6 active torsions:
REMARK  status: ('A' for Active; 'I' for Inactive)
REMARK    1  A    between atoms: C_1  and  C_2
REMARK    2  A    between atoms: C_2  and  C_3
REMARK    3  A    between atoms: C_3  and  O_4
REMARK    4  A    between atoms: C_13  and  O_14
REMARK    5  A    between atoms: C_17  and  C_18
REMARK    6  A    between atoms: C_22  and  C_23
REMARK                            x       y       z     vdW  Elec       q    Type
REMARK                         _______ _______ _______ _____ _____    ______ ____
ROOT
ATOM      1  C   UNL     1       3.936   2.485 -22.440  0.00  0.00    +0.071 C 
ATOM      2  C   UNL     1       4.188   3.498 -23.233  0.00  0.00    +0.035 C 
ATOM      3  C   UNL     1       3.044   4.061 -23.545  0.00  0.00    +0.007 C 
ATOM      4  C   UNL     1       2.086   3.396 -22.945  0.00  0.00    +0.001 C 
ATOM      5  C   UNL     1       0.787   3.554 -22.933  0.00  0.00    +0.000 C 
ATOM      6  C   UNL     1       0.240   4.532 -23.620  0.00  0.00    +0.031 C 
ATOM      7  C   UNL     1      -1.062   4.690 -23.609  0.00  0.00    -0.027 C 
ATOM      8  C   UNL     1      -1.817   3.875 -22.915  0.00  0.00    -0.065 C 
ATOM      9  C   UNL     1      -3.119   4.033 -22.903  0.00  0.00    +0.062 C 
ATOM     10  C   UNL     1      -3.874   3.218 -22.209  0.00  0.00    +0.119 C 
ATOM     11  C   UNL     1      -3.330   2.240 -21.523  0.00  0.00    +0.032 C 
ATOM     12  C   UNL     1      -2.026   2.082 -21.535  0.00  0.00    +0.014 C 
ATOM     13  C   UNL     1      -1.271   2.897 -22.229  0.00  0.00    -0.008 C 
ATOM     14  C   UNL     1      -0.724   1.921 -21.544  0.00  0.00    +0.016 C 
ATOM     15  C   UNL     1       0.031   2.738 -22.239  0.00  0.00    +0.003 C 
ATOM     16  C   UNL     1       0.579   1.760 -21.553  0.00  0.00    +0.005 C 
ATOM     17  C   UNL     1       1.881   1.603 -21.565  0.00  0.00    +0.010 C 
ATOM     18  C   UNL     1       2.636   2.418 -22.259  0.00  0.00    -0.000 C 
ATOM     19  C   UNL     1       3.214   1.470 -21.598  0.00  0.00    +0.014 C 
ENDROOT
BRANCH   1  21
ATOM     20  C   UNL     1       5.983   3.204 -23.149  0.00  0.00    +0.007 C 
ATOM     21  C   UNL     1       5.250   2.363 -22.480  0.00  0.00    +0.032 C 
ENDBRANCH   1  21
BRANCH  10  22
ATOM     22  O   UNL     1      -5.178   3.377 -22.199  0.00  0.00    -0.391 OA
ATOM     23  H   UNL     1      -5.499   3.361 -21.284  0.00  0.00    +0.210 HD
ENDBRANCH  10  22
BRANCH   1  24
ATOM     24  O   UNL     1       4.078   1.672 -21.838  0.00  0.00    -0.388 OA
ATOM     25  H   UNL     1       4.374   0.920 -22.375  0.00  0.00    +0.210 HD
ENDBRANCH   1  24
TORSDOF 3
ENDMDL
