MODEL 1
REMARK VINA RESULT:   -10.090      0.000      0.000
REMARK INTER + INTRA:         -10.204
REMARK INTER:                 -11.151
REMARK INTRA:                   0.946
REMARK UNBOUND:                 1.066
REMARK  Name = COC1=C2Oc3c(OC)ccc4c3[C@]23CCN(C=O)[C@H](C4)[C@@H]3C=C1              ZINC000100393490
REMARK  4 active torsions:
REMARK  status: ('A' for Active; 'I' for Inactive)
REMARK    1  A    between atoms: C_1  and  O_2
REMARK    2  A    between atoms: O_2  and  C_3
REMARK    3  A    between atoms: C_7  and  O_8
REMARK    4  A    between atoms: O_8  and  C_9
REMARK                            x       y       z     vdW  Elec       q    Type
REMARK                         _______ _______ _______ _____ _____    ______ ____
ROOT
ATOM      1  C   UNL     1      -2.772   3.710 -25.318  0.00  0.00    +0.159 C 
ATOM      2  C   UNL     1      -1.634   3.358 -24.927  0.00  0.00    +0.158 C 
ATOM      3  O   UNL     1      -0.169   3.202 -25.275  0.00  0.00    -0.452 OA
ATOM      4  C   UNL     1       0.657   2.650 -24.147  0.00  0.00    +0.174 A 
ATOM      5  C   UNL     1       1.809   2.294 -23.755  0.00  0.00    +0.162 A 
ATOM      6  C   UNL     1       1.960   1.852 -22.578  0.00  0.00    +0.050 A 
ATOM      7  C   UNL     1       0.982   1.766 -21.803  0.00  0.00    +0.008 A 
ATOM      8  C   UNL     1      -0.156   2.118 -22.194  0.00  0.00    -0.038 A 
ATOM      9  C   UNL     1      -1.159   2.032 -21.406  0.00  0.00    +0.058 C 
ATOM     10  C   UNL     1      -2.295   2.384 -21.796  0.00  0.00    +0.088 C 
ATOM     11  C   UNL     1      -2.449   2.826 -22.973  0.00  0.00    +0.051 C 
ATOM     12  C   UNL     1      -3.600   3.181 -23.364  0.00  0.00    -0.017 C 
ATOM     13  N   UNL     1      -3.629   2.757 -22.141  0.00  0.00    -0.300 N 
ATOM     14  C   UNL     1      -4.587   2.652 -21.322  0.00  0.00    +0.328 C 
ATOM     15  O   UNL     1      -4.394   2.208 -20.164  0.00  0.00    -0.279 OA
ATOM     16  C   UNL     1      -3.836   3.255 -23.446  0.00  0.00    +0.109 C 
ATOM     17  C   UNL     1      -2.712   3.341 -24.298  0.00  0.00    +0.039 C 
ATOM     18  C   UNL     1      -0.331   2.561 -23.361  0.00  0.00    +0.016 A 
ATOM     19  C   UNL     1      -1.468   2.911 -23.746  0.00  0.00    +0.070 C 
ATOM     20  C   UNL     1      -3.755   3.619 -24.527  0.00  0.00    +0.045 C 
ENDROOT
BRANCH   1  22
ATOM     21  C   UNL     1      -3.340   3.386 -27.385  0.00  0.00    +0.277 C 
ATOM     22  O   UNL     1      -2.932   4.148 -26.479  0.00  0.00    -0.492 OA
ENDBRANCH   1  22
BRANCH   5  23
ATOM     23  O   UNL     1       2.791   2.379 -24.528  0.00  0.00    -0.491 OA
ATOM     24  C   UNL     1       3.956   2.321 -24.071  0.00  0.00    +0.277 C 
ENDBRANCH   5  23
TORSDOF 2
ENDMDL
MODEL 2
REMARK VINA RESULT:    -9.702      1.514      3.567
REMARK INTER + INTRA:          -9.770
REMARK INTER:                 -10.687
REMARK INTRA:                   0.917
REMARK UNBOUND:                 1.066
REMARK  Name = COC1=C2Oc3c(OC)ccc4c3[C@]23CCN(C=O)[C@H](C4)[C@@H]3C=C1              ZINC000100393490
REMARK  4 active torsions:
REMARK  status: ('A' for Active; 'I' for Inactive)
REMARK    1  A    between atoms: C_1  and  O_2
REMARK    2  A    between atoms: O_2  and  C_3
REMARK    3  A    between atoms: C_7  and  O_8
REMARK    4  A    between atoms: O_8  and  C_9
REMARK                            x       y       z     vdW  Elec       q    Type
REMARK                         _______ _______ _______ _____ _____    ______ ____
ROOT
ATOM      1  C   UNL     1      -2.911   2.910 -21.836  0.00  0.00    +0.159 C 
ATOM      2  C   UNL     1      -1.682   2.811 -22.062  0.00  0.00    +0.158 C 
ATOM      3  O   UNL     1      -0.308   2.544 -21.487  0.00  0.00    -0.452 OA
ATOM      4  C   UNL     1       0.791   2.612 -22.510  0.00  0.00    +0.174 A 
ATOM      5  C   UNL     1       2.034   2.512 -22.735  0.00  0.00    +0.162 A 
ATOM      6  C   UNL     1       2.473   2.685 -23.910  0.00  0.00    +0.050 A 
ATOM      7  C   UNL     1       1.688   2.953 -24.847  0.00  0.00    +0.008 A 
ATOM      8  C   UNL     1       0.459   3.051 -24.621  0.00  0.00    -0.038 A 
ATOM      9  C   UNL     1      -0.348   3.325 -25.574  0.00  0.00    +0.058 C 
ATOM     10  C   UNL     1      -1.575   3.423 -25.349  0.00  0.00    +0.088 C 
ATOM     11  C   UNL     1      -2.016   3.250 -24.174  0.00  0.00    +0.051 C 
ATOM     12  C   UNL     1      -3.259   3.351 -23.950  0.00  0.00    -0.017 C 
ATOM     13  N   UNL     1      -2.988   3.557 -25.199  0.00  0.00    -0.300 N 
ATOM     14  C   UNL     1      -3.743   3.829 -26.177  0.00  0.00    +0.328 C 
ATOM     15  O   UNL     1      -3.266   3.992 -27.327  0.00  0.00    -0.279 OA
ATOM     16  C   UNL     1      -3.513   3.371 -23.902  0.00  0.00    +0.109 C 
ATOM     17  C   UNL     1      -2.603   3.069 -22.865  0.00  0.00    +0.039 C 
ATOM     18  C   UNL     1      -0.001   2.883 -23.459  0.00  0.00    +0.016 A 
ATOM     19  C   UNL     1      -1.228   2.982 -23.239  0.00  0.00    +0.070 C 
ATOM     20  C   UNL     1      -3.698   3.181 -22.789  0.00  0.00    +0.045 C 
ENDROOT
BRANCH   1  22
ATOM     21  C   UNL     1      -3.253   3.655 -19.829  0.00  0.00    +0.277 C 
ATOM     22  O   UNL     1      -3.356   2.741 -20.678  0.00  0.00    -0.492 OA
ENDBRANCH   1  22
BRANCH   5  23
ATOM     23  O   UNL     1       2.824   2.244 -21.800  0.00  0.00    -0.491 OA
ATOM     24  C   UNL     1       2.951   1.062 -21.405  0.00  0.00    +0.277 C 
ENDBRANCH   5  23
TORSDOF 2
ENDMDL
MODEL 3
REMARK VINA RESULT:    -9.682      1.918      5.921
REMARK INTER + INTRA:          -9.748
REMARK INTER:                 -10.905
REMARK INTRA:                   1.157
REMARK UNBOUND:                 1.066
REMARK  Name = COC1=C2Oc3c(OC)ccc4c3[C@]23CCN(C=O)[C@H](C4)[C@@H]3C=C1              ZINC000100393490
REMARK  4 active torsions:
REMARK  status: ('A' for Active; 'I' for Inactive)
REMARK    1  A    between atoms: C_1  and  O_2
REMARK    2  A    between atoms: O_2  and  C_3
REMARK    3  A    between atoms: C_7  and  O_8
REMARK    4  A    between atoms: O_8  and  C_9
REMARK                            x       y       z     vdW  Elec       q    Type
REMARK                         _______ _______ _______ _____ _____    ______ ____
ROOT
ATOM      1  C   UNL     1       0.216   1.754 -21.542  0.00  0.00    +0.159 C 
ATOM      2  C   UNL     1      -0.977   2.086 -21.738  0.00  0.00    +0.158 C 
ATOM      3  O   UNL     1      -2.398   2.061 -21.220  0.00  0.00    -0.452 OA
ATOM      4  C   UNL     1      -3.377   2.752 -22.127  0.00  0.00    +0.174 A 
ATOM      5  C   UNL     1      -4.584   3.086 -22.322  0.00  0.00    +0.162 A 
ATOM      6  C   UNL     1      -4.893   3.730 -23.368  0.00  0.00    +0.050 A 
ATOM      7  C   UNL     1      -4.017   4.036 -24.206  0.00  0.00    +0.008 A 
ATOM      8  C   UNL     1      -2.824   3.704 -24.010  0.00  0.00    -0.038 A 
ATOM      9  C   UNL     1      -1.924   4.015 -24.863  0.00  0.00    +0.058 C 
ATOM     10  C   UNL     1      -0.733   3.683 -24.667  0.00  0.00    +0.088 C 
ATOM     11  C   UNL     1      -0.421   3.039 -23.622  0.00  0.00    +0.051 C 
ATOM     12  C   UNL     1       0.785   2.705 -23.427  0.00  0.00    -0.017 C 
ATOM     13  N   UNL     1       0.650   3.354 -24.540  0.00  0.00    -0.300 N 
ATOM     14  C   UNL     1       1.501   3.686 -25.415  0.00  0.00    +0.328 C 
ATOM     15  O   UNL     1       1.152   4.324 -26.438  0.00  0.00    -0.279 OA
ATOM     16  C   UNL     1       1.032   2.636 -23.386  0.00  0.00    +0.109 C 
ATOM     17  C   UNL     1       0.020   2.304 -22.458  0.00  0.00    +0.039 C 
ATOM     18  C   UNL     1      -2.493   3.063 -22.976  0.00  0.00    +0.016 A 
ATOM     19  C   UNL     1      -1.301   2.734 -22.785  0.00  0.00    +0.070 C 
ATOM     20  C   UNL     1       1.097   2.068 -22.395  0.00  0.00    +0.045 C 
ENDROOT
BRANCH   1  22
ATOM     21  C   UNL     1       1.579   1.412 -19.891  0.00  0.00    +0.277 C 
ATOM     22  O   UNL     1       0.533   1.118 -20.512  0.00  0.00    -0.492 OA
ENDBRANCH   1  22
BRANCH   5  23
ATOM     23  O   UNL     1      -5.466   2.781 -21.485  0.00  0.00    -0.491 OA
ATOM     24  C   UNL     1      -6.657   2.649 -21.849  0.00  0.00    +0.277 C 
ENDBRANCH   5  23
TORSDOF 2
ENDMDL
MODEL 4
REMARK VINA RESULT:    -9.194      1.551      4.770
REMARK INTER + INTRA:          -9.203
REMARK INTER:                 -10.409
REMARK INTRA:                   1.207
REMARK UNBOUND:                 1.066
REMARK  Name = COC1=C2Oc3c(OC)ccc4c3[C@]23CCN(C=O)[C@H](C4)[C@@H]3C=C1              ZINC000100393490
REMARK  4 active torsions:
REMARK  status: ('A' for Active; 'I' for Inactive)
REMARK    1  A    between atoms: C_1  and  O_2
REMARK    2  A    between atoms: O_2  and  C_3
REMARK    3  A    between atoms: C_7  and  O_8
REMARK    4  A    between atoms: O_8  and  C_9
REMARK                            x       y       z     vdW  Elec       q    Type
REMARK                         _______ _______ _______ _____ _____    ______ ____
ROOT
ATOM      1  C   UNL     1      -1.878   3.614 -25.717  0.00  0.00    +0.159 C 
ATOM      2  C   UNL     1      -2.636   3.500 -24.724  0.00  0.00    +0.158 C 
ATOM      3  O   UNL     1      -4.052   3.584 -24.197  0.00  0.00    -0.452 OA
ATOM      4  C   UNL     1      -4.163   3.272 -22.731  0.00  0.00    +0.174 A 
ATOM      5  C   UNL     1      -4.931   3.158 -21.730  0.00  0.00    +0.162 A 
ATOM      6  C   UNL     1      -4.447   2.838 -20.604  0.00  0.00    +0.050 A 
ATOM      7  C   UNL     1      -3.220   2.635 -20.476  0.00  0.00    +0.008 A 
ATOM      8  C   UNL     1      -2.462   2.749 -21.469  0.00  0.00    -0.038 A 
ATOM      9  C   UNL     1      -1.207   2.542 -21.345  0.00  0.00    +0.058 C 
ATOM     10  C   UNL     1      -0.451   2.656 -22.336  0.00  0.00    +0.088 C 
ATOM     11  C   UNL     1      -0.933   2.976 -23.462  0.00  0.00    +0.051 C 
ATOM     12  C   UNL     1      -0.165   3.090 -24.463  0.00  0.00    -0.017 C 
ATOM     13  N   UNL     1       0.495   2.759 -23.399  0.00  0.00    -0.300 N 
ATOM     14  C   UNL     1       1.728   2.543 -23.222  0.00  0.00    +0.328 C 
ATOM     15  O   UNL     1       2.166   2.228 -22.089  0.00  0.00    -0.279 OA
ATOM     16  C   UNL     1      -0.009   3.114 -24.670  0.00  0.00    +0.109 C 
ATOM     17  C   UNL     1      -1.399   3.337 -24.782  0.00  0.00    +0.039 C 
ATOM     18  C   UNL     1      -2.922   3.066 -22.599  0.00  0.00    +0.016 A 
ATOM     19  C   UNL     1      -2.162   3.179 -23.586  0.00  0.00    +0.070 C 
ATOM     20  C   UNL     1      -0.638   3.407 -25.579  0.00  0.00    +0.045 C 
ENDROOT
BRANCH   1  22
ATOM     21  C   UNL     1      -3.323   3.302 -27.304  0.00  0.00    +0.277 C 
ATOM     22  O   UNL     1      -2.346   3.930 -26.834  0.00  0.00    -0.492 OA
ENDBRANCH   1  22
BRANCH   5  23
ATOM     23  O   UNL     1      -6.162   3.361 -21.853  0.00  0.00    -0.491 OA
ATOM     24  C   UNL     1      -6.970   2.415 -21.714  0.00  0.00    +0.277 C 
ENDBRANCH   5  23
TORSDOF 2
ENDMDL
MODEL 5
REMARK VINA RESULT:    -8.808      1.911      4.748
REMARK INTER + INTRA:          -8.772
REMARK INTER:                  -9.830
REMARK INTRA:                   1.058
REMARK UNBOUND:                 1.066
REMARK  Name = COC1=C2Oc3c(OC)ccc4c3[C@]23CCN(C=O)[C@H](C4)[C@@H]3C=C1              ZINC000100393490
REMARK  4 active torsions:
REMARK  status: ('A' for Active; 'I' for Inactive)
REMARK    1  A    between atoms: C_1  and  O_2
REMARK    2  A    between atoms: O_2  and  C_3
REMARK    3  A    between atoms: C_7  and  O_8
REMARK    4  A    between atoms: O_8  and  C_9
REMARK                            x       y       z     vdW  Elec       q    Type
REMARK                         _______ _______ _______ _____ _____    ______ ____
ROOT
ATOM      1  C   UNL     1       0.757   2.930 -24.740  0.00  0.00    +0.159 C 
ATOM      2  C   UNL     1      -0.438   3.015 -24.369  0.00  0.00    +0.158 C 
ATOM      3  O   UNL     1      -1.859   3.367 -24.753  0.00  0.00    -0.452 OA
ATOM      4  C   UNL     1      -2.842   3.188 -23.630  0.00  0.00    +0.174 A 
ATOM      5  C   UNL     1      -4.051   3.275 -23.258  0.00  0.00    +0.162 A 
ATOM      6  C   UNL     1      -4.364   2.966 -22.071  0.00  0.00    +0.050 A 
ATOM      7  C   UNL     1      -3.489   2.576 -21.266  0.00  0.00    +0.008 A 
ATOM      8  C   UNL     1      -2.294   2.491 -21.636  0.00  0.00    -0.038 A 
ATOM      9  C   UNL     1      -1.397   2.093 -20.818  0.00  0.00    +0.058 C 
ATOM     10  C   UNL     1      -0.204   2.008 -21.188  0.00  0.00    +0.088 C 
ATOM     11  C   UNL     1       0.111   2.317 -22.375  0.00  0.00    +0.051 C 
ATOM     12  C   UNL     1       1.320   2.230 -22.746  0.00  0.00    -0.017 C 
ATOM     13  N   UNL     1       1.181   1.876 -21.508  0.00  0.00    -0.300 N 
ATOM     14  C   UNL     1       2.029   1.478 -20.659  0.00  0.00    +0.328 C 
ATOM     15  O   UNL     1       1.676   1.181 -19.492  0.00  0.00    -0.279 OA
ATOM     16  C   UNL     1       1.567   2.213 -22.824  0.00  0.00    +0.109 C 
ATOM     17  C   UNL     1       0.557   2.650 -23.709  0.00  0.00    +0.039 C 
ATOM     18  C   UNL     1      -1.960   2.794 -22.814  0.00  0.00    +0.016 A 
ATOM     19  C   UNL     1      -0.767   2.707 -23.178  0.00  0.00    +0.070 C 
ATOM     20  C   UNL     1       1.635   2.535 -23.919  0.00  0.00    +0.045 C 
ENDROOT
BRANCH   1  22
ATOM     21  C   UNL     1       1.202   4.437 -26.234  0.00  0.00    +0.277 C 
ATOM     22  O   UNL     1       1.077   3.234 -25.911  0.00  0.00    -0.492 OA
ENDBRANCH   1  22
BRANCH   5  23
ATOM     23  O   UNL     1      -4.930   3.665 -24.061  0.00  0.00    -0.491 OA
ATOM     24  C   UNL     1      -4.764   4.723 -24.709  0.00  0.00    +0.277 C 
ENDBRANCH   5  23
TORSDOF 2
ENDMDL
MODEL 6
REMARK VINA RESULT:    -8.397      2.555      5.614
REMARK INTER + INTRA:          -8.313
REMARK INTER:                  -9.398
REMARK INTRA:                   1.085
REMARK UNBOUND:                 1.066
REMARK  Name = COC1=C2Oc3c(OC)ccc4c3[C@]23CCN(C=O)[C@H](C4)[C@@H]3C=C1              ZINC000100393490
REMARK  4 active torsions:
REMARK  status: ('A' for Active; 'I' for Inactive)
REMARK    1  A    between atoms: C_1  and  O_2
REMARK    2  A    between atoms: O_2  and  C_3
REMARK    3  A    between atoms: C_7  and  O_8
REMARK    4  A    between atoms: O_8  and  C_9
REMARK                            x       y       z     vdW  Elec       q    Type
REMARK                         _______ _______ _______ _____ _____    ______ ____
ROOT
ATOM      1  C   UNL     1       2.537   5.241 -23.177  0.00  0.00    +0.159 C 
ATOM      2  C   UNL     1       1.338   4.948 -23.397  0.00  0.00    +0.158 C 
ATOM      3  O   UNL     1      -0.023   5.439 -23.839  0.00  0.00    -0.452 OA
ATOM      4  C   UNL     1      -1.074   4.365 -23.839  0.00  0.00    +0.174 A 
ATOM      5  C   UNL     1      -2.288   4.072 -24.062  0.00  0.00    +0.162 A 
ATOM      6  C   UNL     1      -2.688   2.884 -23.878  0.00  0.00    +0.050 A 
ATOM      7  C   UNL     1      -1.895   2.002 -23.480  0.00  0.00    +0.008 A 
ATOM      8  C   UNL     1      -0.696   2.295 -23.261  0.00  0.00    -0.038 A 
ATOM      9  C   UNL     1       0.119   1.398 -22.854  0.00  0.00    +0.058 C 
ATOM     10  C   UNL     1       1.316   1.691 -22.636  0.00  0.00    +0.088 C 
ATOM     11  C   UNL     1       1.719   2.877 -22.818  0.00  0.00    +0.051 C 
ATOM     12  C   UNL     1       2.931   3.170 -22.596  0.00  0.00    -0.017 C 
ATOM     13  N   UNL     1       2.697   1.918 -22.357  0.00  0.00    -0.300 N 
ATOM     14  C   UNL     1       3.461   0.994 -21.956  0.00  0.00    +0.328 C 
ATOM     15  O   UNL     1       3.023  -0.170 -21.788  0.00  0.00    -0.279 OA
ATOM     16  C   UNL     1       3.179   3.231 -22.550  0.00  0.00    +0.109 C 
ATOM     17  C   UNL     1       2.261   4.205 -23.000  0.00  0.00    +0.039 C 
ATOM     18  C   UNL     1      -0.275   3.471 -23.437  0.00  0.00    +0.016 A 
ATOM     19  C   UNL     1       0.922   3.757 -23.217  0.00  0.00    +0.070 C 
ATOM     20  C   UNL     1       3.332   4.343 -22.775  0.00  0.00    +0.045 C 
ENDROOT
BRANCH   1  22
ATOM     21  C   UNL     1       3.575   6.999 -22.448  0.00  0.00    +0.277 C 
ATOM     22  O   UNL     1       2.943   6.411 -23.355  0.00  0.00    -0.492 OA
ENDBRANCH   1  22
BRANCH   5  23
ATOM     23  O   UNL     1      -3.085   4.952 -24.460  0.00  0.00    -0.491 OA
ATOM     24  C   UNL     1      -4.174   4.621 -24.984  0.00  0.00    +0.277 C 
ENDBRANCH   5  23
TORSDOF 2
ENDMDL
MODEL 7
REMARK VINA RESULT:    -8.164      2.712      6.184
REMARK INTER + INTRA:          -8.052
REMARK INTER:                  -8.957
REMARK INTRA:                   0.905
REMARK UNBOUND:                 1.066
REMARK  Name = COC1=C2Oc3c(OC)ccc4c3[C@]23CCN(C=O)[C@H](C4)[C@@H]3C=C1              ZINC000100393490
REMARK  4 active torsions:
REMARK  status: ('A' for Active; 'I' for Inactive)
REMARK    1  A    between atoms: C_1  and  O_2
REMARK    2  A    between atoms: O_2  and  C_3
REMARK    3  A    between atoms: C_7  and  O_8
REMARK    4  A    between atoms: O_8  and  C_9
REMARK                            x       y       z     vdW  Elec       q    Type
REMARK                         _______ _______ _______ _____ _____    ______ ____
ROOT
ATOM      1  C   UNL     1       3.004   1.356 -24.290  0.00  0.00    +0.159 C 
ATOM      2  C   UNL     1       1.911   1.959 -24.167  0.00  0.00    +0.158 C 
ATOM      3  O   UNL     1       0.406   1.889 -24.307  0.00  0.00    -0.452 OA
ATOM      4  C   UNL     1      -0.289   3.165 -23.922  0.00  0.00    +0.174 A 
ATOM      5  C   UNL     1      -1.396   3.771 -23.799  0.00  0.00    +0.162 A 
ATOM      6  C   UNL     1      -1.410   4.969 -23.389  0.00  0.00    +0.050 A 
ATOM      7  C   UNL     1      -0.342   5.555 -23.106  0.00  0.00    +0.008 A 
ATOM      8  C   UNL     1       0.751   4.952 -23.228  0.00  0.00    -0.038 A 
ATOM      9  C   UNL     1       1.846   5.546 -22.941  0.00  0.00    +0.058 C 
ATOM     10  C   UNL     1       2.937   4.944 -23.063  0.00  0.00    +0.088 C 
ATOM     11  C   UNL     1       2.953   3.746 -23.473  0.00  0.00    +0.051 C 
ATOM     12  C   UNL     1       4.059   3.141 -23.596  0.00  0.00    -0.017 C 
ATOM     13  N   UNL     1       4.231   4.351 -23.167  0.00  0.00    -0.300 N 
ATOM     14  C   UNL     1       5.284   4.984 -22.869  0.00  0.00    +0.328 C 
ATOM     15  O   UNL     1       5.225   6.171 -22.466  0.00  0.00    -0.279 OA
ATOM     16  C   UNL     1       4.285   3.015 -23.622  0.00  0.00    +0.109 C 
ATOM     17  C   UNL     1       3.063   2.381 -23.934  0.00  0.00    +0.039 C 
ATOM     18  C   UNL     1       0.790   3.759 -23.635  0.00  0.00    +0.016 A 
ATOM     19  C   UNL     1       1.882   3.163 -23.756  0.00  0.00    +0.070 C 
ATOM     20  C   UNL     1       4.080   1.956 -24.001  0.00  0.00    +0.045 C 
ENDROOT
BRANCH   1  22
ATOM     21  C   UNL     1       3.021  -0.070 -25.923  0.00  0.00    +0.277 C 
ATOM     22  O   UNL     1       3.029   0.172 -24.695  0.00  0.00    -0.492 OA
ENDBRANCH   1  22
BRANCH   5  23
ATOM     23  O   UNL     1      -2.468   3.188 -24.082  0.00  0.00    -0.491 OA
ATOM     24  C   UNL     1      -2.799   3.027 -25.279  0.00  0.00    +0.277 C 
ENDBRANCH   5  23
TORSDOF 2
ENDMDL
MODEL 8
REMARK VINA RESULT:    -7.496      1.597      5.386
REMARK INTER + INTRA:          -7.306
REMARK INTER:                  -8.363
REMARK INTRA:                   1.056
REMARK UNBOUND:                 1.066
REMARK  Name = COC1=C2Oc3c(OC)ccc4c3[C@]23CCN(C=O)[C@H](C4)[C@@H]3C=C1              ZINC000100393490
REMARK  4 active torsions:
REMARK  status: ('A' for Active; 'I' for Inactive)
REMARK    1  A    between atoms: C_1  and  O_2
REMARK    2  A    between atoms: O_2  and  C_3
REMARK    3  A    between atoms: C_7  and  O_8
REMARK    4  A    between atoms: O_8  and  C_9
REMARK                            x       y       z     vdW  Elec       q    Type
REMARK                         _______ _______ _______ _____ _____    ______ ____
ROOT
ATOM      1  C   UNL     1      -2.147   2.625 -21.187  0.00  0.00    +0.159 C 
ATOM      2  C   UNL     1      -2.570   2.939 -22.325  0.00  0.00    +0.158 C 
ATOM      3  O   UNL     1      -3.759   3.360 -23.160  0.00  0.00    -0.452 OA
ATOM      4  C   UNL     1      -3.426   3.570 -24.610  0.00  0.00    +0.174 A 
ATOM      5  C   UNL     1      -3.857   3.888 -25.759  0.00  0.00    +0.162 A 
ATOM      6  C   UNL     1      -3.059   3.906 -26.743  0.00  0.00    +0.050 A 
ATOM      7  C   UNL     1      -1.853   3.613 -26.587  0.00  0.00    +0.008 A 
ATOM      8  C   UNL     1      -1.430   3.299 -25.449  0.00  0.00    -0.038 A 
ATOM      9  C   UNL     1      -0.199   2.999 -25.283  0.00  0.00    +0.058 C 
ATOM     10  C   UNL     1       0.223   2.686 -24.147  0.00  0.00    +0.088 C 
ATOM     11  C   UNL     1      -0.572   2.667 -23.162  0.00  0.00    +0.051 C 
ATOM     12  C   UNL     1      -0.141   2.350 -22.014  0.00  0.00    -0.017 C 
ATOM     13  N   UNL     1       0.805   2.316 -22.898  0.00  0.00    -0.300 N 
ATOM     14  C   UNL     1       2.032   2.028 -22.789  0.00  0.00    +0.328 C 
ATOM     15  O   UNL     1       2.788   2.058 -23.790  0.00  0.00    -0.279 OA
ATOM     16  C   UNL     1      -0.054   2.285 -21.778  0.00  0.00    +0.109 C 
ATOM     17  C   UNL     1      -1.410   2.620 -21.986  0.00  0.00    +0.039 C 
ATOM     18  C   UNL     1      -2.205   3.274 -24.455  0.00  0.00    +0.016 A 
ATOM     19  C   UNL     1      -1.779   2.961 -23.322  0.00  0.00    +0.070 C 
ATOM     20  C   UNL     1      -0.925   2.330 -21.038  0.00  0.00    +0.045 C 
ENDROOT
BRANCH   1  22
ATOM     21  C   UNL     1      -3.274   3.676 -19.662  0.00  0.00    +0.277 C 
ATOM     22  O   UNL     1      -2.926   2.604 -20.207  0.00  0.00    -0.492 OA
ENDBRANCH   1  22
BRANCH   5  23
ATOM     23  O   UNL     1      -5.064   4.182 -25.920  0.00  0.00    -0.491 OA
ATOM     24  C   UNL     1      -5.959   3.412 -25.503  0.00  0.00    +0.277 C 
ENDBRANCH   5  23
TORSDOF 2
ENDMDL
MODEL 9
REMARK VINA RESULT:    -7.375      3.581      5.998
REMARK INTER + INTRA:          -7.172
REMARK INTER:                  -8.238
REMARK INTRA:                   1.066
REMARK UNBOUND:                 1.066
REMARK  Name = COC1=C2Oc3c(OC)ccc4c3[C@]23CCN(C=O)[C@H](C4)[C@@H]3C=C1              ZINC000100393490
REMARK  4 active torsions:
REMARK  status: ('A' for Active; 'I' for Inactive)
REMARK    1  A    between atoms: C_1  and  O_2
REMARK    2  A    between atoms: O_2  and  C_3
REMARK    3  A    between atoms: C_7  and  O_8
REMARK    4  A    between atoms: O_8  and  C_9
REMARK                            x       y       z     vdW  Elec       q    Type
REMARK                         _______ _______ _______ _____ _____    ______ ____
ROOT
ATOM      1  C   UNL     1       1.070   4.870 -23.584  0.00  0.00    +0.159 C 
ATOM      2  C   UNL     1       2.224   5.211 -23.231  0.00  0.00    +0.158 C 
ATOM      3  O   UNL     1       3.090   6.285 -22.611  0.00  0.00    -0.452 OA
ATOM      4  C   UNL     1       4.541   5.901 -22.518  0.00  0.00    +0.174 A 
ATOM      5  C   UNL     1       5.706   6.249 -22.160  0.00  0.00    +0.162 A 
ATOM      6  C   UNL     1       6.676   5.453 -22.331  0.00  0.00    +0.050 A 
ATOM      7  C   UNL     1       6.491   4.330 -22.850  0.00  0.00    +0.008 A 
ATOM      8  C   UNL     1       5.337   3.990 -23.204  0.00  0.00    -0.038 A 
ATOM      9  C   UNL     1       5.142   2.844 -23.735  0.00  0.00    +0.058 C 
ATOM     10  C   UNL     1       3.991   2.503 -24.088  0.00  0.00    +0.088 C 
ATOM     11  C   UNL     1       3.019   3.297 -23.917  0.00  0.00    +0.051 C 
ATOM     12  C   UNL     1       1.855   2.950 -24.276  0.00  0.00    -0.017 C 
ATOM     13  N   UNL     1       2.721   2.019 -24.524  0.00  0.00    -0.300 N 
ATOM     14  C   UNL     1       2.583   0.875 -25.044  0.00  0.00    +0.328 C 
ATOM     15  O   UNL     1       3.572   0.117 -25.196  0.00  0.00    -0.279 OA
ATOM     16  C   UNL     1       1.615   2.880 -24.349  0.00  0.00    +0.109 C 
ATOM     17  C   UNL     1       1.856   4.141 -23.760  0.00  0.00    +0.039 C 
ATOM     18  C   UNL     1       4.356   4.765 -23.043  0.00  0.00    +0.016 A 
ATOM     19  C   UNL     1       3.208   4.421 -23.397  0.00  0.00    +0.070 C 
ATOM     20  C   UNL     1       0.891   3.733 -24.109  0.00  0.00    +0.045 C 
ENDROOT
BRANCH   1  22
ATOM     21  C   UNL     1      -0.907   5.267 -22.787  0.00  0.00    +0.277 C 
ATOM     22  O   UNL     1       0.104   5.649 -23.420  0.00  0.00    -0.492 OA
ENDBRANCH   1  22
BRANCH   5  23
ATOM     23  O   UNL     1       5.896   7.373 -21.639  0.00  0.00    -0.491 OA
ATOM     24  C   UNL     1       6.904   7.570 -20.922  0.00  0.00    +0.277 C 
ENDBRANCH   5  23
TORSDOF 2
ENDMDL
