MODEL 1
REMARK VINA RESULT:   -11.693      0.000      0.000
REMARK INTER + INTRA:         -12.718
REMARK INTER:                 -12.718
REMARK INTRA:                   0.000
REMARK UNBOUND:                 0.000
REMARK  Name = C[C@@]12CCC[C@@H]1[C@H]1CC(=O)[C@@]3(O)C[C@@H](O)CC[C@]3(C)[C@H]1CC2 ZINC000253505028
REMARK  4 active torsions:
REMARK  status: ('A' for Active; 'I' for Inactive)
REMARK    1  A    between atoms: C_1  and  C_2
REMARK    2  A    between atoms: C_11  and  O_12
REMARK    3  A    between atoms: C_14  and  O_15
REMARK    4  A    between atoms: C_18  and  C_19
REMARK                            x       y       z     vdW  Elec       q    Type
REMARK                         _______ _______ _______ _____ _____    ______ ____
ROOT
ATOM      1  C   UNL     1      -5.139   4.120 -24.158  0.00  0.00    +0.011 C 
ATOM      2  C   UNL     1      -4.338   3.530 -23.322  0.00  0.00    -0.029 C 
ATOM      3  C   UNL     1      -5.569   3.601 -22.913  0.00  0.00    +0.007 C 
ATOM      4  C   UNL     1      -5.636   3.039 -21.743  0.00  0.00    +0.001 C 
ATOM      5  C   UNL     1      -4.447   2.621 -21.429  0.00  0.00    +0.004 C 
ATOM      6  C   UNL     1      -3.758   3.939 -24.411  0.00  0.00    +0.007 C 
ATOM      7  C   UNL     1      -2.484   3.742 -24.584  0.00  0.00    +0.005 C 
ATOM      8  C   UNL     1      -1.791   3.136 -23.666  0.00  0.00    +0.002 C 
ATOM      9  C   UNL     1      -0.517   2.940 -23.839  0.00  0.00    +0.007 C 
ATOM     10  C   UNL     1      -1.211   3.545 -24.757  0.00  0.00    +0.015 C 
ATOM     11  C   UNL     1       0.062   3.348 -24.929  0.00  0.00    +0.012 C 
ATOM     12  C   UNL     1       1.335   3.151 -25.100  0.00  0.00    +0.032 C 
ATOM     13  C   UNL     1       2.030   2.546 -24.183  0.00  0.00    +0.118 C 
ATOM     14  C   UNL     1       1.450   2.137 -23.094  0.00  0.00    +0.074 C 
ATOM     15  C   UNL     1       0.177   2.334 -22.922  0.00  0.00    +0.131 C 
ATOM     16  C   UNL     1      -0.402   1.925 -21.832  0.00  0.00    +0.165 C 
ATOM     17  O   UNL     1       0.291   1.319 -20.914  0.00  0.00    -0.294 OA
ATOM     18  C   UNL     1      -1.677   2.122 -21.660  0.00  0.00    +0.081 C 
ATOM     19  C   UNL     1      -2.370   2.728 -22.577  0.00  0.00    +0.004 C 
ATOM     20  C   UNL     1      -3.644   2.924 -22.405  0.00  0.00    -0.001 C 
ENDROOT
BRANCH  13  21
ATOM     21  O   UNL     1       3.303   2.349 -24.356  0.00  0.00    -0.392 OA
ATOM     22  H   UNL     1       3.467   2.079 -25.273  0.00  0.00    +0.210 HD
ENDBRANCH  13  21
BRANCH  15  23
ATOM     23  O   UNL     1       0.870   1.728 -22.004  0.00  0.00    -0.380 OA
ATOM     24  H   UNL     1       1.805   1.969 -22.094  0.00  0.00    +0.211 HD
ENDBRANCH  15  23
TORSDOF 2
ENDMDL
MODEL 2
REMARK VINA RESULT:   -11.375      1.182      2.750
REMARK INTER + INTRA:         -12.373
REMARK INTER:                 -12.373
REMARK INTRA:                   0.000
REMARK UNBOUND:                 0.000
REMARK  Name = C[C@@]12CCC[C@@H]1[C@H]1CC(=O)[C@@]3(O)C[C@@H](O)CC[C@]3(C)[C@H]1CC2 ZINC000253505028
REMARK  4 active torsions:
REMARK  status: ('A' for Active; 'I' for Inactive)
REMARK    1  A    between atoms: C_1  and  C_2
REMARK    2  A    between atoms: C_11  and  O_12
REMARK    3  A    between atoms: C_14  and  O_15
REMARK    4  A    between atoms: C_18  and  C_19
REMARK                            x       y       z     vdW  Elec       q    Type
REMARK                         _______ _______ _______ _____ _____    ______ ____
ROOT
ATOM      1  C   UNL     1      -5.058   3.144 -21.929  0.00  0.00    +0.011 C 
ATOM      2  C   UNL     1      -4.118   3.314 -22.811  0.00  0.00    -0.029 C 
ATOM      3  C   UNL     1      -5.284   3.742 -23.193  0.00  0.00    +0.007 C 
ATOM      4  C   UNL     1      -5.159   4.232 -24.390  0.00  0.00    +0.001 C 
ATOM      5  C   UNL     1      -3.916   4.107 -24.748  0.00  0.00    +0.004 C 
ATOM      6  C   UNL     1      -3.716   2.748 -21.712  0.00  0.00    +0.007 C 
ATOM      7  C   UNL     1      -2.469   2.407 -21.573  0.00  0.00    +0.005 C 
ATOM      8  C   UNL     1      -1.624   2.633 -22.535  0.00  0.00    +0.002 C 
ATOM      9  C   UNL     1      -0.377   2.292 -22.396  0.00  0.00    +0.007 C 
ATOM     10  C   UNL     1      -1.222   2.066 -21.435  0.00  0.00    +0.015 C 
ATOM     11  C   UNL     1       0.024   1.726 -21.297  0.00  0.00    +0.012 C 
ATOM     12  C   UNL     1       1.272   1.385 -21.160  0.00  0.00    +0.032 C 
ATOM     13  C   UNL     1       2.118   1.611 -22.121  0.00  0.00    +0.118 C 
ATOM     14  C   UNL     1       1.716   2.176 -23.219  0.00  0.00    +0.074 C 
ATOM     15  C   UNL     1       0.469   2.517 -23.358  0.00  0.00    +0.131 C 
ATOM     16  C   UNL     1       0.068   3.083 -24.457  0.00  0.00    +0.165 C 
ATOM     17  O   UNL     1       0.913   3.309 -25.419  0.00  0.00    -0.294 OA
ATOM     18  C   UNL     1      -1.180   3.424 -24.595  0.00  0.00    +0.081 C 
ATOM     19  C   UNL     1      -2.025   3.198 -23.634  0.00  0.00    +0.004 C 
ATOM     20  C   UNL     1      -3.272   3.539 -23.772  0.00  0.00    -0.001 C 
ENDROOT
BRANCH  13  21
ATOM     21  O   UNL     1       3.364   1.270 -21.982  0.00  0.00    -0.392 OA
ATOM     22  H   UNL     1       3.421   0.319 -21.801  0.00  0.00    +0.210 HD
ENDBRANCH  13  21
BRANCH  15  23
ATOM     23  O   UNL     1       1.314   2.743 -24.319  0.00  0.00    -0.380 OA
ATOM     24  H   UNL     1       0.835   3.042 -25.107  0.00  0.00    +0.211 HD
ENDBRANCH  15  23
TORSDOF 2
ENDMDL
MODEL 3
REMARK VINA RESULT:   -11.127      2.661      5.895
REMARK INTER + INTRA:         -12.103
REMARK INTER:                 -12.103
REMARK INTRA:                   0.000
REMARK UNBOUND:                 0.000
REMARK  Name = C[C@@]12CCC[C@@H]1[C@H]1CC(=O)[C@@]3(O)C[C@@H](O)CC[C@]3(C)[C@H]1CC2 ZINC000253505028
REMARK  4 active torsions:
REMARK  status: ('A' for Active; 'I' for Inactive)
REMARK    1  A    between atoms: C_1  and  C_2
REMARK    2  A    between atoms: C_11  and  O_12
REMARK    3  A    between atoms: C_14  and  O_15
REMARK    4  A    between atoms: C_18  and  C_19
REMARK                            x       y       z     vdW  Elec       q    Type
REMARK                         _______ _______ _______ _____ _____    ______ ____
ROOT
ATOM      1  C   UNL     1       1.666   2.159 -22.692  0.00  0.00    +0.011 C 
ATOM      2  C   UNL     1       0.771   2.722 -23.448  0.00  0.00    -0.029 C 
ATOM      3  C   UNL     1       1.974   2.755 -23.939  0.00  0.00    +0.007 C 
ATOM      4  C   UNL     1       1.923   3.366 -25.085  0.00  0.00    +0.001 C 
ATOM      5  C   UNL     1       0.690   3.710 -25.303  0.00  0.00    +0.004 C 
ATOM      6  C   UNL     1       0.295   2.231 -22.343  0.00  0.00    +0.007 C 
ATOM      7  C   UNL     1      -0.974   2.330 -22.080  0.00  0.00    +0.005 C 
ATOM      8  C   UNL     1      -1.768   2.920 -22.923  0.00  0.00    +0.002 C 
ATOM      9  C   UNL     1      -3.038   3.019 -22.660  0.00  0.00    +0.007 C 
ATOM     10  C   UNL     1      -2.244   2.429 -21.817  0.00  0.00    +0.015 C 
ATOM     11  C   UNL     1      -3.513   2.528 -21.554  0.00  0.00    +0.012 C 
ATOM     12  C   UNL     1      -4.782   2.627 -21.293  0.00  0.00    +0.032 C 
ATOM     13  C   UNL     1      -5.577   3.217 -22.135  0.00  0.00    +0.118 C 
ATOM     14  C   UNL     1      -5.101   3.708 -23.241  0.00  0.00    +0.074 C 
ATOM     15  C   UNL     1      -3.832   3.609 -23.504  0.00  0.00    +0.131 C 
ATOM     16  C   UNL     1      -3.357   4.101 -24.610  0.00  0.00    +0.165 C 
ATOM     17  O   UNL     1      -4.150   4.691 -25.453  0.00  0.00    -0.294 OA
ATOM     18  C   UNL     1      -2.086   4.002 -24.872  0.00  0.00    +0.081 C 
ATOM     19  C   UNL     1      -1.293   3.411 -24.029  0.00  0.00    +0.004 C 
ATOM     20  C   UNL     1      -0.023   3.313 -24.292  0.00  0.00    -0.001 C 
ENDROOT
BRANCH  13  21
ATOM     21  O   UNL     1      -6.845   3.316 -21.873  0.00  0.00    -0.392 OA
ATOM     22  H   UNL     1      -7.341   2.696 -22.432  0.00  0.00    +0.210 HD
ENDBRANCH  13  21
BRANCH  15  23
ATOM     23  O   UNL     1      -4.625   4.200 -24.347  0.00  0.00    -0.380 OA
ATOM     24  H   UNL     1      -4.933   5.038 -23.969  0.00  0.00    +0.211 HD
ENDBRANCH  15  23
TORSDOF 2
ENDMDL
MODEL 4
REMARK VINA RESULT:   -10.248      2.222      5.195
REMARK INTER + INTRA:         -11.146
REMARK INTER:                 -11.146
REMARK INTRA:                   0.000
REMARK UNBOUND:                 0.000
REMARK  Name = C[C@@]12CCC[C@@H]1[C@H]1CC(=O)[C@@]3(O)C[C@@H](O)CC[C@]3(C)[C@H]1CC2 ZINC000253505028
REMARK  4 active torsions:
REMARK  status: ('A' for Active; 'I' for Inactive)
REMARK    1  A    between atoms: C_1  and  C_2
REMARK    2  A    between atoms: C_11  and  O_12
REMARK    3  A    between atoms: C_14  and  O_15
REMARK    4  A    between atoms: C_18  and  C_19
REMARK                            x       y       z     vdW  Elec       q    Type
REMARK                         _______ _______ _______ _____ _____    ______ ____
ROOT
ATOM      1  C   UNL     1       2.484   2.641 -24.244  0.00  0.00    +0.011 C 
ATOM      2  C   UNL     1       1.531   2.410 -23.390  0.00  0.00    -0.029 C 
ATOM      3  C   UNL     1       2.694   1.967 -23.017  0.00  0.00    +0.007 C 
ATOM      4  C   UNL     1       2.554   1.401 -21.855  0.00  0.00    +0.001 C 
ATOM      5  C   UNL     1       1.305   1.495 -21.510  0.00  0.00    +0.004 C 
ATOM      6  C   UNL     1       1.142   3.041 -24.458  0.00  0.00    +0.007 C 
ATOM      7  C   UNL     1      -0.105   3.381 -24.595  0.00  0.00    +0.005 C 
ATOM      8  C   UNL     1      -0.964   3.090 -23.663  0.00  0.00    +0.002 C 
ATOM      9  C   UNL     1      -2.211   3.430 -23.800  0.00  0.00    +0.007 C 
ATOM     10  C   UNL     1      -1.353   3.721 -24.731  0.00  0.00    +0.015 C 
ATOM     11  C   UNL     1      -2.600   4.061 -24.868  0.00  0.00    +0.012 C 
ATOM     12  C   UNL     1      -3.847   4.401 -25.004  0.00  0.00    +0.032 C 
ATOM     13  C   UNL     1      -4.706   4.109 -24.072  0.00  0.00    +0.118 C 
ATOM     14  C   UNL     1      -4.317   3.478 -23.005  0.00  0.00    +0.074 C 
ATOM     15  C   UNL     1      -3.070   3.138 -22.868  0.00  0.00    +0.131 C 
ATOM     16  C   UNL     1      -2.682   2.507 -21.800  0.00  0.00    +0.165 C 
ATOM     17  O   UNL     1      -3.540   2.215 -20.869  0.00  0.00    -0.294 OA
ATOM     18  C   UNL     1      -1.433   2.167 -21.664  0.00  0.00    +0.081 C 
ATOM     19  C   UNL     1      -0.575   2.458 -22.596  0.00  0.00    +0.004 C 
ATOM     20  C   UNL     1       0.673   2.118 -22.459  0.00  0.00    -0.001 C 
ENDROOT
BRANCH  13  21
ATOM     21  O   UNL     1      -5.953   4.449 -24.209  0.00  0.00    -0.392 OA
ATOM     22  H   UNL     1      -6.053   5.005 -24.998  0.00  0.00    +0.210 HD
ENDBRANCH  13  21
BRANCH  15  23
ATOM     23  O   UNL     1      -3.928   2.847 -21.937  0.00  0.00    -0.380 OA
ATOM     24  H   UNL     1      -4.799   3.199 -22.178  0.00  0.00    +0.211 HD
ENDBRANCH  15  23
TORSDOF 2
ENDMDL
MODEL 5
REMARK VINA RESULT:   -10.104      1.486      2.476
REMARK INTER + INTRA:         -10.990
REMARK INTER:                 -10.990
REMARK INTRA:                   0.000
REMARK UNBOUND:                 0.000
REMARK  Name = C[C@@]12CCC[C@@H]1[C@H]1CC(=O)[C@@]3(O)C[C@@H](O)CC[C@]3(C)[C@H]1CC2 ZINC000253505028
REMARK  4 active torsions:
REMARK  status: ('A' for Active; 'I' for Inactive)
REMARK    1  A    between atoms: C_1  and  C_2
REMARK    2  A    between atoms: C_11  and  O_12
REMARK    3  A    between atoms: C_14  and  O_15
REMARK    4  A    between atoms: C_18  and  C_19
REMARK                            x       y       z     vdW  Elec       q    Type
REMARK                         _______ _______ _______ _____ _____    ______ ____
ROOT
ATOM      1  C   UNL     1      -2.499   3.538 -24.664  0.00  0.00    +0.011 C 
ATOM      2  C   UNL     1      -1.975   3.070 -23.570  0.00  0.00    -0.029 C 
ATOM      3  C   UNL     1      -3.247   3.318 -23.483  0.00  0.00    +0.007 C 
ATOM      4  C   UNL     1      -3.634   3.013 -22.280  0.00  0.00    +0.001 C 
ATOM      5  C   UNL     1      -2.601   2.577 -21.624  0.00  0.00    +0.004 C 
ATOM      6  C   UNL     1      -1.128   3.203 -24.547  0.00  0.00    +0.007 C 
ATOM      7  C   UNL     1       0.119   2.877 -24.376  0.00  0.00    +0.005 C 
ATOM      8  C   UNL     1       0.519   2.418 -23.227  0.00  0.00    +0.002 C 
ATOM      9  C   UNL     1       1.766   2.093 -23.056  0.00  0.00    +0.007 C 
ATOM     10  C   UNL     1       1.366   2.551 -24.205  0.00  0.00    +0.015 C 
ATOM     11  C   UNL     1       2.613   2.225 -24.034  0.00  0.00    +0.012 C 
ATOM     12  C   UNL     1       3.859   1.899 -23.861  0.00  0.00    +0.032 C 
ATOM     13  C   UNL     1       4.260   1.441 -22.713  0.00  0.00    +0.118 C 
ATOM     14  C   UNL     1       3.413   1.309 -21.736  0.00  0.00    +0.074 C 
ATOM     15  C   UNL     1       2.166   1.634 -21.907  0.00  0.00    +0.131 C 
ATOM     16  C   UNL     1       1.319   1.502 -20.929  0.00  0.00    +0.165 C 
ATOM     17  O   UNL     1       1.719   1.044 -19.780  0.00  0.00    -0.294 OA
ATOM     18  C   UNL     1       0.072   1.828 -21.101  0.00  0.00    +0.081 C 
ATOM     19  C   UNL     1      -0.328   2.286 -22.250  0.00  0.00    +0.004 C 
ATOM     20  C   UNL     1      -1.575   2.612 -22.421  0.00  0.00    -0.001 C 
ENDROOT
BRANCH  13  21
ATOM     21  O   UNL     1       5.506   1.115 -22.541  0.00  0.00    -0.392 OA
ATOM     22  H   UNL     1       5.717   0.343 -23.090  0.00  0.00    +0.210 HD
ENDBRANCH  13  21
BRANCH  15  23
ATOM     23  O   UNL     1       2.565   1.176 -20.758  0.00  0.00    -0.380 OA
ATOM     24  H   UNL     1       3.491   1.427 -20.614  0.00  0.00    +0.211 HD
ENDBRANCH  15  23
TORSDOF 2
ENDMDL
MODEL 6
REMARK VINA RESULT:    -9.738      2.444      6.226
REMARK INTER + INTRA:         -10.592
REMARK INTER:                 -10.592
REMARK INTRA:                   0.000
REMARK UNBOUND:                 0.000
REMARK  Name = C[C@@]12CCC[C@@H]1[C@H]1CC(=O)[C@@]3(O)C[C@@H](O)CC[C@]3(C)[C@H]1CC2 ZINC000253505028
REMARK  4 active torsions:
REMARK  status: ('A' for Active; 'I' for Inactive)
REMARK    1  A    between atoms: C_1  and  C_2
REMARK    2  A    between atoms: C_11  and  O_12
REMARK    3  A    between atoms: C_14  and  O_15
REMARK    4  A    between atoms: C_18  and  C_19
REMARK                            x       y       z     vdW  Elec       q    Type
REMARK                         _______ _______ _______ _____ _____    ______ ____
ROOT
ATOM      1  C   UNL     1       3.924   0.740 -22.174  0.00  0.00    +0.011 C 
ATOM      2  C   UNL     1       3.333   1.825 -22.579  0.00  0.00    -0.029 C 
ATOM      3  C   UNL     1       4.608   1.792 -22.830  0.00  0.00    +0.007 C 
ATOM      4  C   UNL     1       4.927   2.897 -23.435  0.00  0.00    +0.001 C 
ATOM      5  C   UNL     1       3.850   3.613 -23.558  0.00  0.00    +0.004 C 
ATOM      6  C   UNL     1       2.539   0.976 -21.999  0.00  0.00    +0.007 C 
ATOM      7  C   UNL     1       1.275   1.252 -21.869  0.00  0.00    +0.005 C 
ATOM      8  C   UNL     1       0.806   2.377 -22.319  0.00  0.00    +0.002 C 
ATOM      9  C   UNL     1      -0.458   2.653 -22.189  0.00  0.00    +0.007 C 
ATOM     10  C   UNL     1       0.011   1.527 -21.738  0.00  0.00    +0.015 C 
ATOM     11  C   UNL     1      -1.252   1.803 -21.608  0.00  0.00    +0.012 C 
ATOM     12  C   UNL     1      -2.516   2.080 -21.479  0.00  0.00    +0.032 C 
ATOM     13  C   UNL     1      -2.986   3.206 -21.929  0.00  0.00    +0.118 C 
ATOM     14  C   UNL     1      -2.191   4.055 -22.509  0.00  0.00    +0.074 C 
ATOM     15  C   UNL     1      -0.927   3.779 -22.639  0.00  0.00    +0.131 C 
ATOM     16  C   UNL     1      -0.132   4.629 -23.219  0.00  0.00    +0.165 C 
ATOM     17  O   UNL     1      -0.601   5.755 -23.670  0.00  0.00    -0.294 OA
ATOM     18  C   UNL     1       1.132   4.352 -23.349  0.00  0.00    +0.081 C 
ATOM     19  C   UNL     1       1.601   3.226 -22.899  0.00  0.00    +0.004 C 
ATOM     20  C   UNL     1       2.865   2.951 -23.029  0.00  0.00    -0.001 C 
ENDROOT
BRANCH  13  21
ATOM     21  O   UNL     1      -4.249   3.482 -21.799  0.00  0.00    -0.392 OA
ATOM     22  H   UNL     1      -4.773   2.849 -22.315  0.00  0.00    +0.210 HD
ENDBRANCH  13  21
BRANCH  15  23
ATOM     23  O   UNL     1      -1.396   4.905 -23.089  0.00  0.00    -0.380 OA
ATOM     24  H   UNL     1      -2.165   4.732 -23.653  0.00  0.00    +0.211 HD
ENDBRANCH  15  23
TORSDOF 2
ENDMDL
MODEL 7
REMARK VINA RESULT:    -9.344      2.279      5.786
REMARK INTER + INTRA:         -10.163
REMARK INTER:                 -10.163
REMARK INTRA:                   0.000
REMARK UNBOUND:                 0.000
REMARK  Name = C[C@@]12CCC[C@@H]1[C@H]1CC(=O)[C@@]3(O)C[C@@H](O)CC[C@]3(C)[C@H]1CC2 ZINC000253505028
REMARK  4 active torsions:
REMARK  status: ('A' for Active; 'I' for Inactive)
REMARK    1  A    between atoms: C_1  and  C_2
REMARK    2  A    between atoms: C_11  and  O_12
REMARK    3  A    between atoms: C_14  and  O_15
REMARK    4  A    between atoms: C_18  and  C_19
REMARK                            x       y       z     vdW  Elec       q    Type
REMARK                         _______ _______ _______ _____ _____    ______ ____
ROOT
ATOM      1  C   UNL     1       4.711   3.993 -23.253  0.00  0.00    +0.011 C 
ATOM      2  C   UNL     1       3.816   3.203 -22.739  0.00  0.00    -0.029 C 
ATOM      3  C   UNL     1       5.039   2.882 -22.438  0.00  0.00    +0.007 C 
ATOM      4  C   UNL     1       5.003   1.825 -21.683  0.00  0.00    +0.001 C 
ATOM      5  C   UNL     1       3.758   1.492 -21.516  0.00  0.00    +0.004 C 
ATOM      6  C   UNL     1       3.321   4.166 -23.457  0.00  0.00    +0.007 C 
ATOM      7  C   UNL     1       2.033   4.270 -23.607  0.00  0.00    +0.005 C 
ATOM      8  C   UNL     1       1.241   3.411 -23.037  0.00  0.00    +0.002 C 
ATOM      9  C   UNL     1      -0.046   3.516 -23.187  0.00  0.00    +0.007 C 
ATOM     10  C   UNL     1       0.746   4.375 -23.756  0.00  0.00    +0.015 C 
ATOM     11  C   UNL     1      -0.541   4.480 -23.906  0.00  0.00    +0.012 C 
ATOM     12  C   UNL     1      -1.828   4.583 -24.054  0.00  0.00    +0.032 C 
ATOM     13  C   UNL     1      -2.621   3.724 -23.485  0.00  0.00    +0.118 C 
ATOM     14  C   UNL     1      -2.125   2.762 -22.766  0.00  0.00    +0.074 C 
ATOM     15  C   UNL     1      -0.838   2.657 -22.617  0.00  0.00    +0.131 C 
ATOM     16  C   UNL     1      -0.343   1.693 -21.898  0.00  0.00    +0.165 C 
ATOM     17  O   UNL     1      -1.135   0.834 -21.328  0.00  0.00    -0.294 OA
ATOM     18  C   UNL     1       0.945   1.589 -21.748  0.00  0.00    +0.081 C 
ATOM     19  C   UNL     1       1.737   2.449 -22.318  0.00  0.00    +0.004 C 
ATOM     20  C   UNL     1       3.024   2.344 -22.169  0.00  0.00    -0.001 C 
ENDROOT
BRANCH  13  21
ATOM     21  O   UNL     1      -3.907   3.829 -23.634  0.00  0.00    -0.392 OA
ATOM     22  H   UNL     1      -4.173   3.399 -24.463  0.00  0.00    +0.210 HD
ENDBRANCH  13  21
BRANCH  15  23
ATOM     23  O   UNL     1      -1.630   1.798 -22.047  0.00  0.00    -0.380 OA
ATOM     24  H   UNL     1      -2.162   2.247 -21.373  0.00  0.00    +0.211 HD
ENDBRANCH  15  23
TORSDOF 2
ENDMDL
