MODEL 1
REMARK VINA RESULT:    -9.649      0.000      0.000
REMARK INTER + INTRA:          -9.931
REMARK INTER:                  -9.931
REMARK INTRA:                   0.000
REMARK UNBOUND:                 0.000
REMARK  Name = ZINC000004104711
REMARK  4 active torsions:
REMARK  status: ('A' for Active; 'I' for Inactive)
REMARK    1  A    between atoms: C_1  and  C_2
REMARK    2  A    between atoms: C_9  and  O_10
REMARK    3  A    between atoms: C_14  and  C_15
REMARK    4  A    between atoms: C_14  and  C_16
REMARK                            x       y       z     vdW  Elec       q    Type
REMARK                         _______ _______ _______ _____ _____    ______ ____
ROOT
ATOM      1  C   UNL     1      -3.914   2.559 -20.628  0.00  0.00    +0.008 C 
ATOM      2  C   UNL     1      -4.271   2.992 -21.800  0.00  0.00    -0.010 C 
ATOM      3  C   UNL     1      -5.469   3.361 -22.146  0.00  0.00    +0.004 C 
ATOM      4  C   UNL     1      -5.432   3.728 -23.393  0.00  0.00    +0.011 C 
ATOM      5  C   UNL     1      -4.212   3.586 -23.817  0.00  0.00    +0.059 C 
ATOM      6  C   UNL     1      -3.837   3.869 -25.030  0.00  0.00    +0.139 C 
ATOM      7  C   UNL     1      -2.654   3.767 -25.558  0.00  0.00    +0.106 C 
ATOM      8  C   UNL     1      -1.552   3.356 -25.003  0.00  0.00    +0.126 C 
ATOM      9  C   UNL     1      -1.362   2.946 -23.784  0.00  0.00    +0.028 C 
ATOM     10  C   UNL     1      -2.226   2.847 -22.819  0.00  0.00    +0.005 C 
ATOM     11  C   UNL     1      -0.986   2.512 -22.618  0.00  0.00    -0.026 C 
ATOM     12  C   UNL     1      -1.049   2.150 -21.371  0.00  0.00    +0.011 C 
ATOM     13  C   UNL     1       0.276   2.303 -22.851  0.00  0.00    +0.011 C 
ATOM     14  O   UNL     1      -4.770   4.313 -25.819  0.00  0.00    -0.297 OA
ATOM     15  C   UNL     1      -3.494   3.131 -22.834  0.00  0.00    +0.006 C 
ENDROOT
BRANCH   8  16
ATOM     16  O   UNL     1      -0.502   3.355 -25.769  0.00  0.00    -0.391 OA
ATOM     17  H   UNL     1      -0.054   2.496 -25.704  0.00  0.00    +0.210 HD
ENDBRANCH   8  16
TORSDOF 1
ENDMDL
MODEL 2
REMARK VINA RESULT:    -9.311      1.365      3.407
REMARK INTER + INTRA:          -9.583
REMARK INTER:                  -9.583
REMARK INTRA:                   0.000
REMARK UNBOUND:                 0.000
REMARK  Name = ZINC000004104711
REMARK  4 active torsions:
REMARK  status: ('A' for Active; 'I' for Inactive)
REMARK    1  A    between atoms: C_1  and  C_2
REMARK    2  A    between atoms: C_9  and  O_10
REMARK    3  A    between atoms: C_14  and  C_15
REMARK    4  A    between atoms: C_14  and  C_16
REMARK                            x       y       z     vdW  Elec       q    Type
REMARK                         _______ _______ _______ _____ _____    ______ ____
ROOT
ATOM      1  C   UNL     1      -5.572   3.405 -22.499  0.00  0.00    +0.008 C 
ATOM      2  C   UNL     1      -4.368   3.127 -22.097  0.00  0.00    -0.010 C 
ATOM      3  C   UNL     1      -4.013   2.862 -20.874  0.00  0.00    +0.004 C 
ATOM      4  C   UNL     1      -2.733   2.636 -20.867  0.00  0.00    +0.011 C 
ATOM      5  C   UNL     1      -2.296   2.762 -22.085  0.00  0.00    +0.059 C 
ATOM      6  C   UNL     1      -1.050   2.600 -22.420  0.00  0.00    +0.139 C 
ATOM      7  C   UNL     1      -0.508   2.701 -23.597  0.00  0.00    +0.106 C 
ATOM      8  C   UNL     1      -1.076   2.989 -24.730  0.00  0.00    +0.126 C 
ATOM      9  C   UNL     1      -2.328   3.248 -24.965  0.00  0.00    +0.028 C 
ATOM     10  C   UNL     1      -3.320   3.282 -24.126  0.00  0.00    +0.005 C 
ATOM     11  C   UNL     1      -3.527   3.528 -25.386  0.00  0.00    -0.026 C 
ATOM     12  C   UNL     1      -4.807   3.749 -25.367  0.00  0.00    +0.011 C 
ATOM     13  C   UNL     1      -3.286   3.697 -26.653  0.00  0.00    +0.011 C 
ATOM     14  O   UNL     1      -0.240   2.296 -21.449  0.00  0.00    -0.297 OA
ATOM     15  C   UNL     1      -3.306   3.066 -22.845  0.00  0.00    +0.006 C 
ENDROOT
BRANCH   8  16
ATOM     16  O   UNL     1      -0.289   3.023 -25.763  0.00  0.00    -0.391 OA
ATOM     17  H   UNL     1      -0.467   2.258 -26.332  0.00  0.00    +0.210 HD
ENDBRANCH   8  16
TORSDOF 1
ENDMDL
MODEL 3
REMARK VINA RESULT:    -8.743      1.331      2.854
REMARK INTER + INTRA:          -8.999
REMARK INTER:                  -8.999
REMARK INTRA:                   0.000
REMARK UNBOUND:                 0.000
REMARK  Name = ZINC000004104711
REMARK  4 active torsions:
REMARK  status: ('A' for Active; 'I' for Inactive)
REMARK    1  A    between atoms: C_1  and  C_2
REMARK    2  A    between atoms: C_9  and  O_10
REMARK    3  A    between atoms: C_14  and  C_15
REMARK    4  A    between atoms: C_14  and  C_16
REMARK                            x       y       z     vdW  Elec       q    Type
REMARK                         _______ _______ _______ _____ _____    ______ ____
ROOT
ATOM      1  C   UNL     1      -0.978   2.283 -21.395  0.00  0.00    +0.008 C 
ATOM      2  C   UNL     1      -2.253   2.529 -21.398  0.00  0.00    -0.010 C 
ATOM      3  C   UNL     1      -3.059   2.398 -20.385  0.00  0.00    +0.004 C 
ATOM      4  C   UNL     1      -4.252   2.738 -20.774  0.00  0.00    +0.011 C 
ATOM      5  C   UNL     1      -4.184   3.080 -22.026  0.00  0.00    +0.059 C 
ATOM      6  C   UNL     1      -5.212   3.474 -22.718  0.00  0.00    +0.139 C 
ATOM      7  C   UNL     1      -5.260   3.837 -23.965  0.00  0.00    +0.106 C 
ATOM      8  C   UNL     1      -4.290   3.895 -24.829  0.00  0.00    +0.126 C 
ATOM      9  C   UNL     1      -3.034   3.605 -24.659  0.00  0.00    +0.028 C 
ATOM     10  C   UNL     1      -2.438   3.185 -23.584  0.00  0.00    +0.005 C 
ATOM     11  C   UNL     1      -1.757   3.363 -24.676  0.00  0.00    -0.026 C 
ATOM     12  C   UNL     1      -0.574   3.018 -24.264  0.00  0.00    +0.011 C 
ATOM     13  C   UNL     1      -1.487   3.661 -25.913  0.00  0.00    +0.011 C 
ATOM     14  O   UNL     1      -6.343   3.511 -22.077  0.00  0.00    -0.297 OA
ATOM     15  C   UNL     1      -2.950   2.951 -22.412  0.00  0.00    +0.006 C 
ENDROOT
BRANCH   8  16
ATOM     16  O   UNL     1      -4.620   4.296 -26.021  0.00  0.00    -0.391 OA
ATOM     17  H   UNL     1      -4.477   5.253 -26.091  0.00  0.00    +0.210 HD
ENDBRANCH   8  16
TORSDOF 1
ENDMDL
MODEL 4
REMARK VINA RESULT:    -8.629      1.313      3.551
REMARK INTER + INTRA:          -8.881
REMARK INTER:                  -8.881
REMARK INTRA:                   0.000
REMARK UNBOUND:                 0.000
REMARK  Name = ZINC000004104711
REMARK  4 active torsions:
REMARK  status: ('A' for Active; 'I' for Inactive)
REMARK    1  A    between atoms: C_1  and  C_2
REMARK    2  A    between atoms: C_9  and  O_10
REMARK    3  A    between atoms: C_14  and  C_15
REMARK    4  A    between atoms: C_14  and  C_16
REMARK                            x       y       z     vdW  Elec       q    Type
REMARK                         _______ _______ _______ _____ _____    ______ ____
ROOT
ATOM      1  C   UNL     1      -0.068   2.899 -23.426  0.00  0.00    +0.008 C 
ATOM      2  C   UNL     1      -1.058   3.191 -24.216  0.00  0.00    -0.010 C 
ATOM      3  C   UNL     1      -0.978   3.396 -25.497  0.00  0.00    +0.004 C 
ATOM      4  C   UNL     1      -2.173   3.660 -25.937  0.00  0.00    +0.011 C 
ATOM      5  C   UNL     1      -2.991   3.618 -24.928  0.00  0.00    +0.059 C 
ATOM      6  C   UNL     1      -4.268   3.839 -25.031  0.00  0.00    +0.139 C 
ATOM      7  C   UNL     1      -5.172   3.823 -24.097  0.00  0.00    +0.106 C 
ATOM      8  C   UNL     1      -5.021   3.584 -22.828  0.00  0.00    +0.126 C 
ATOM      9  C   UNL     1      -3.931   3.301 -22.181  0.00  0.00    +0.028 C 
ATOM     10  C   UNL     1      -2.721   3.187 -22.642  0.00  0.00    +0.005 C 
ATOM     11  C   UNL     1      -2.952   3.009 -21.375  0.00  0.00    -0.026 C 
ATOM     12  C   UNL     1      -1.749   2.747 -20.960  0.00  0.00    +0.011 C 
ATOM     13  C   UNL     1      -3.603   2.921 -20.253  0.00  0.00    +0.011 C 
ATOM     14  O   UNL     1      -4.698   4.110 -26.228  0.00  0.00    -0.297 OA
ATOM     15  C   UNL     1      -2.302   3.328 -23.865  0.00  0.00    +0.006 C 
ENDROOT
BRANCH   8  16
ATOM     16  O   UNL     1      -6.105   3.634 -22.113  0.00  0.00    -0.391 OA
ATOM     17  H   UNL     1      -6.339   2.740 -21.816  0.00  0.00    +0.210 HD
ENDBRANCH   8  16
TORSDOF 1
ENDMDL
MODEL 5
REMARK VINA RESULT:    -8.558      1.994      3.274
REMARK INTER + INTRA:          -8.808
REMARK INTER:                  -8.808
REMARK INTRA:                   0.000
REMARK UNBOUND:                 0.000
REMARK  Name = ZINC000004104711
REMARK  4 active torsions:
REMARK  status: ('A' for Active; 'I' for Inactive)
REMARK    1  A    between atoms: C_1  and  C_2
REMARK    2  A    between atoms: C_9  and  O_10
REMARK    3  A    between atoms: C_14  and  C_15
REMARK    4  A    between atoms: C_14  and  C_16
REMARK                            x       y       z     vdW  Elec       q    Type
REMARK                         _______ _______ _______ _____ _____    ______ ____
ROOT
ATOM      1  C   UNL     1      -3.641   4.355 -25.799  0.00  0.00    +0.008 C 
ATOM      2  C   UNL     1      -4.030   3.962 -24.623  0.00  0.00    -0.010 C 
ATOM      3  C   UNL     1      -5.245   4.017 -24.162  0.00  0.00    +0.004 C 
ATOM      4  C   UNL     1      -5.238   3.534 -22.955  0.00  0.00    +0.011 C 
ATOM      5  C   UNL     1      -4.020   3.182 -22.670  0.00  0.00    +0.059 C 
ATOM      6  C   UNL     1      -3.673   2.659 -21.530  0.00  0.00    +0.139 C 
ATOM      7  C   UNL     1      -2.495   2.273 -21.141  0.00  0.00    +0.106 C 
ATOM      8  C   UNL     1      -1.372   2.314 -21.794  0.00  0.00    +0.126 C 
ATOM      9  C   UNL     1      -1.150   2.750 -22.998  0.00  0.00    +0.028 C 
ATOM     10  C   UNL     1      -1.996   3.254 -23.846  0.00  0.00    +0.005 C 
ATOM     11  C   UNL     1      -0.743   3.138 -24.171  0.00  0.00    -0.026 C 
ATOM     12  C   UNL     1      -0.775   3.625 -25.375  0.00  0.00    +0.011 C 
ATOM     13  C   UNL     1       0.522   2.853 -24.075  0.00  0.00    +0.011 C 
ATOM     14  O   UNL     1      -4.633   2.503 -20.667  0.00  0.00    -0.297 OA
ATOM     15  C   UNL     1      -3.274   3.446 -23.700  0.00  0.00    +0.006 C 
ENDROOT
BRANCH   8  16
ATOM     16  O   UNL     1      -0.334   1.857 -21.159  0.00  0.00    -0.391 OA
ATOM     17  H   UNL     1      -0.103   0.980 -21.503  0.00  0.00    +0.210 HD
ENDBRANCH   8  16
TORSDOF 1
ENDMDL
MODEL 6
REMARK VINA RESULT:    -8.510      1.821      4.311
REMARK INTER + INTRA:          -8.758
REMARK INTER:                  -8.758
REMARK INTRA:                   0.000
REMARK UNBOUND:                 0.000
REMARK  Name = ZINC000004104711
REMARK  4 active torsions:
REMARK  status: ('A' for Active; 'I' for Inactive)
REMARK    1  A    between atoms: C_1  and  C_2
REMARK    2  A    between atoms: C_9  and  O_10
REMARK    3  A    between atoms: C_14  and  C_15
REMARK    4  A    between atoms: C_14  and  C_16
REMARK                            x       y       z     vdW  Elec       q    Type
REMARK                         _______ _______ _______ _____ _____    ______ ____
ROOT
ATOM      1  C   UNL     1       0.100   2.592 -23.999  0.00  0.00    +0.008 C 
ATOM      2  C   UNL     1      -0.687   2.563 -22.965  0.00  0.00    -0.010 C 
ATOM      3  C   UNL     1      -0.348   2.225 -21.756  0.00  0.00    +0.004 C 
ATOM      4  C   UNL     1      -1.402   2.320 -21.002  0.00  0.00    +0.011 C 
ATOM      5  C   UNL     1      -2.393   2.718 -21.743  0.00  0.00    +0.059 C 
ATOM      6  C   UNL     1      -3.596   2.913 -21.289  0.00  0.00    +0.139 C 
ATOM      7  C   UNL     1      -4.652   3.306 -21.935  0.00  0.00    +0.106 C 
ATOM      8  C   UNL     1      -4.768   3.602 -23.196  0.00  0.00    +0.126 C 
ATOM      9  C   UNL     1      -3.856   3.577 -24.121  0.00  0.00    +0.028 C 
ATOM     10  C   UNL     1      -2.602   3.250 -24.015  0.00  0.00    +0.005 C 
ATOM     11  C   UNL     1      -3.084   3.612 -25.167  0.00  0.00    -0.026 C 
ATOM     12  C   UNL     1      -2.016   3.508 -25.901  0.00  0.00    +0.011 C 
ATOM     13  C   UNL     1      -3.937   4.009 -26.064  0.00  0.00    +0.011 C 
ATOM     14  O   UNL     1      -3.763   2.684 -20.020  0.00  0.00    -0.297 OA
ATOM     15  C   UNL     1      -1.951   2.868 -22.956  0.00  0.00    +0.006 C 
ENDROOT
BRANCH   8  16
ATOM     16  O   UNL     1      -5.953   3.971 -23.582  0.00  0.00    -0.391 OA
ATOM     17  H   UNL     1      -6.584   3.845 -22.855  0.00  0.00    +0.210 HD
ENDBRANCH   8  16
TORSDOF 1
ENDMDL
MODEL 7
REMARK VINA RESULT:    -8.484      1.984      4.707
REMARK INTER + INTRA:          -8.732
REMARK INTER:                  -8.732
REMARK INTRA:                   0.000
REMARK UNBOUND:                 0.000
REMARK  Name = ZINC000004104711
REMARK  4 active torsions:
REMARK  status: ('A' for Active; 'I' for Inactive)
REMARK    1  A    between atoms: C_1  and  C_2
REMARK    2  A    between atoms: C_9  and  O_10
REMARK    3  A    between atoms: C_14  and  C_15
REMARK    4  A    between atoms: C_14  and  C_16
REMARK                            x       y       z     vdW  Elec       q    Type
REMARK                         _______ _______ _______ _____ _____    ______ ____
ROOT
ATOM      1  C   UNL     1      -3.323   3.909 -26.068  0.00  0.00    +0.008 C 
ATOM      2  C   UNL     1      -2.379   3.609 -25.227  0.00  0.00    -0.010 C 
ATOM      3  C   UNL     1      -1.113   3.508 -25.504  0.00  0.00    +0.004 C 
ATOM      4  C   UNL     1      -0.485   3.194 -24.410  0.00  0.00    +0.011 C 
ATOM      5  C   UNL     1      -1.363   3.100 -23.456  0.00  0.00    +0.059 C 
ATOM      6  C   UNL     1      -1.059   2.798 -22.228  0.00  0.00    +0.139 C 
ATOM      7  C   UNL     1      -1.849   2.677 -21.204  0.00  0.00    +0.106 C 
ATOM      8  C   UNL     1      -3.139   2.829 -21.152  0.00  0.00    +0.126 C 
ATOM      9  C   UNL     1      -3.957   3.139 -22.114  0.00  0.00    +0.028 C 
ATOM     10  C   UNL     1      -3.688   3.374 -23.363  0.00  0.00    +0.005 C 
ATOM     11  C   UNL     1      -4.916   3.438 -22.941  0.00  0.00    -0.026 C 
ATOM     12  C   UNL     1      -5.520   3.752 -24.047  0.00  0.00    +0.011 C 
ATOM     13  C   UNL     1      -5.933   3.393 -22.132  0.00  0.00    +0.011 C 
ATOM     14  O   UNL     1       0.203   2.588 -21.996  0.00  0.00    -0.297 OA
ATOM     15  C   UNL     1      -2.533   3.356 -23.961  0.00  0.00    +0.006 C 
ENDROOT
BRANCH   8  16
ATOM     16  O   UNL     1      -3.682   2.647 -19.986  0.00  0.00    -0.391 OA
ATOM     17  H   UNL     1      -4.283   3.384 -19.790  0.00  0.00    +0.210 HD
ENDBRANCH   8  16
TORSDOF 1
ENDMDL
MODEL 8
REMARK VINA RESULT:    -8.463      1.079      3.586
REMARK INTER + INTRA:          -8.710
REMARK INTER:                  -8.710
REMARK INTRA:                   0.000
REMARK UNBOUND:                 0.000
REMARK  Name = ZINC000004104711
REMARK  4 active torsions:
REMARK  status: ('A' for Active; 'I' for Inactive)
REMARK    1  A    between atoms: C_1  and  C_2
REMARK    2  A    between atoms: C_9  and  O_10
REMARK    3  A    between atoms: C_14  and  C_15
REMARK    4  A    between atoms: C_14  and  C_16
REMARK                            x       y       z     vdW  Elec       q    Type
REMARK                         _______ _______ _______ _____ _____    ______ ____
ROOT
ATOM      1  C   UNL     1      -3.559   3.021 -20.760  0.00  0.00    +0.008 C 
ATOM      2  C   UNL     1      -2.461   2.885 -21.443  0.00  0.00    -0.010 C 
ATOM      3  C   UNL     1      -1.295   2.572 -20.960  0.00  0.00    +0.004 C 
ATOM      4  C   UNL     1      -0.449   2.531 -21.947  0.00  0.00    +0.011 C 
ATOM      5  C   UNL     1      -1.092   2.819 -23.039  0.00  0.00    +0.059 C 
ATOM      6  C   UNL     1      -0.531   2.864 -24.211  0.00  0.00    +0.139 C 
ATOM      7  C   UNL     1      -1.073   3.139 -25.360  0.00  0.00    +0.106 C 
ATOM      8  C   UNL     1      -2.311   3.436 -25.621  0.00  0.00    +0.126 C 
ATOM      9  C   UNL     1      -3.313   3.532 -24.798  0.00  0.00    +0.028 C 
ATOM     10  C   UNL     1      -3.323   3.355 -23.511  0.00  0.00    +0.005 C 
ATOM     11  C   UNL     1      -4.421   3.672 -24.131  0.00  0.00    -0.026 C 
ATOM     12  C   UNL     1      -5.246   3.706 -23.129  0.00  0.00    +0.011 C 
ATOM     13  C   UNL     1      -5.230   3.978 -25.102  0.00  0.00    +0.011 C 
ATOM     14  O   UNL     1       0.742   2.600 -24.236  0.00  0.00    -0.297 OA
ATOM     15  C   UNL     1      -2.335   3.037 -22.728  0.00  0.00    +0.006 C 
ENDROOT
BRANCH   8  16
ATOM     16  O   UNL     1      -2.583   3.668 -26.871  0.00  0.00    -0.391 OA
ATOM     17  H   UNL     1      -2.688   2.825 -27.341  0.00  0.00    +0.210 HD
ENDBRANCH   8  16
TORSDOF 1
ENDMDL
MODEL 9
REMARK VINA RESULT:    -8.258      0.546      3.627
REMARK INTER + INTRA:          -8.499
REMARK INTER:                  -8.499
REMARK INTRA:                   0.000
REMARK UNBOUND:                 0.000
REMARK  Name = ZINC000004104711
REMARK  4 active torsions:
REMARK  status: ('A' for Active; 'I' for Inactive)
REMARK    1  A    between atoms: C_1  and  C_2
REMARK    2  A    between atoms: C_9  and  O_10
REMARK    3  A    between atoms: C_14  and  C_15
REMARK    4  A    between atoms: C_14  and  C_16
REMARK                            x       y       z     vdW  Elec       q    Type
REMARK                         _______ _______ _______ _____ _____    ______ ____
ROOT
ATOM      1  C   UNL     1      -1.141   1.924 -20.996  0.00  0.00    +0.008 C 
ATOM      2  C   UNL     1      -0.926   2.303 -22.220  0.00  0.00    -0.010 C 
ATOM      3  C   UNL     1       0.213   2.254 -22.846  0.00  0.00    +0.004 C 
ATOM      4  C   UNL     1       0.032   2.718 -24.047  0.00  0.00    +0.011 C 
ATOM      5  C   UNL     1      -1.219   3.053 -24.164  0.00  0.00    +0.059 C 
ATOM      6  C   UNL     1      -1.729   3.554 -25.251  0.00  0.00    +0.139 C 
ATOM      7  C   UNL     1      -2.954   3.921 -25.476  0.00  0.00    +0.106 C 
ATOM      8  C   UNL     1      -3.974   3.880 -24.671  0.00  0.00    +0.126 C 
ATOM      9  C   UNL     1      -4.020   3.459 -23.442  0.00  0.00    +0.028 C 
ATOM     10  C   UNL     1      -3.057   2.978 -22.714  0.00  0.00    +0.005 C 
ATOM     11  C   UNL     1      -4.254   3.086 -22.218  0.00  0.00    -0.026 C 
ATOM     12  C   UNL     1      -4.047   2.618 -21.024  0.00  0.00    +0.011 C 
ATOM     13  C   UNL     1      -5.523   3.357 -22.139  0.00  0.00    +0.011 C 
ATOM     14  O   UNL     1      -0.902   3.707 -26.242  0.00  0.00    -0.297 OA
ATOM     15  C   UNL     1      -1.810   2.797 -23.035  0.00  0.00    +0.006 C 
ENDROOT
BRANCH   8  16
ATOM     16  O   UNL     1      -5.097   4.315 -25.161  0.00  0.00    -0.391 OA
ATOM     17  H   UNL     1      -5.836   3.835 -24.754  0.00  0.00    +0.210 HD
ENDBRANCH   8  16
TORSDOF 1
ENDMDL
