MODEL 1
REMARK VINA RESULT:    -9.906      0.000      0.000
REMARK INTER + INTRA:         -10.196
REMARK INTER:                 -10.196
REMARK INTRA:                   0.000
REMARK UNBOUND:                 0.000
REMARK  Name = ZINC000005734433
REMARK  3 active torsions:
REMARK  status: ('A' for Active; 'I' for Inactive)
REMARK    1  A    between atoms: C_1  and  C_2
REMARK    2  A    between atoms: C_2  and  C_3
REMARK    3  A    between atoms: C_17  and  O_18
REMARK                            x       y       z     vdW  Elec       q    Type
REMARK                         _______ _______ _______ _____ _____    ______ ____
ROOT
ATOM      1  C   UNL     1      -4.855   3.162 -21.752  0.00  0.00    +0.056 C 
ATOM      2  C   UNL     1      -4.101   3.286 -22.803  0.00  0.00    +0.112 C 
ATOM      3  C   UNL     1      -3.740   3.563 -24.021  0.00  0.00    +0.127 C 
ATOM      4  C   UNL     1      -2.512   3.356 -24.397  0.00  0.00    +0.174 C 
ATOM      5  C   UNL     1      -1.647   2.873 -23.555  0.00  0.00    +0.101 A 
ATOM      6  C   UNL     1      -2.009   2.596 -22.338  0.00  0.00    +0.139 A 
ATOM      7  C   UNL     1      -1.145   2.113 -21.496  0.00  0.00    +0.093 A 
ATOM      8  C   UNL     1       0.083   1.907 -21.872  0.00  0.00    +0.146 A 
ATOM      9  O   UNL     1       0.948   1.424 -21.031  0.00  0.00    -0.422 OA
ATOM     10  C   UNL     1       2.175   1.217 -21.407  0.00  0.00    +0.337 A 
ATOM     11  C   UNL     1       2.537   1.494 -22.625  0.00  0.00    +0.093 A 
ATOM     12  C   UNL     1       1.672   1.977 -23.466  0.00  0.00    +0.022 A 
ATOM     13  O   UNL     1       3.041   0.734 -20.566  0.00  0.00    -0.245 OA
ATOM     14  C   UNL     1       0.445   2.183 -23.090  0.00  0.00    +0.060 A 
ATOM     15  C   UNL     1      -0.420   2.667 -23.931  0.00  0.00    +0.141 A 
ATOM     16  O   UNL     1      -2.150   3.633 -25.615  0.00  0.00    -0.292 OA
ATOM     17  C   UNL     1      -5.228   3.726 -23.279  0.00  0.00    +0.056 C 
ATOM     18  O   UNL     1      -3.236   2.803 -21.961  0.00  0.00    -0.485 OA
ENDROOT
BRANCH  15  19
ATOM     19  O   UNL     1      -0.058   2.943 -25.149  0.00  0.00    -0.505 OA
ATOM     20  H   UNL     1      -0.293   2.369 -25.850  0.00  0.00    +0.292 HD
ENDBRANCH  15  19
TORSDOF 1
ENDMDL
MODEL 2
REMARK VINA RESULT:    -9.415      1.060      5.276
REMARK INTER + INTRA:          -9.690
REMARK INTER:                  -9.690
REMARK INTRA:                   0.000
REMARK UNBOUND:                 0.000
REMARK  Name = ZINC000005734433
REMARK  3 active torsions:
REMARK  status: ('A' for Active; 'I' for Inactive)
REMARK    1  A    between atoms: C_1  and  C_2
REMARK    2  A    between atoms: C_2  and  C_3
REMARK    3  A    between atoms: C_17  and  O_18
REMARK                            x       y       z     vdW  Elec       q    Type
REMARK                         _______ _______ _______ _____ _____    ______ ____
ROOT
ATOM      1  C   UNL     1       2.373   1.494 -21.379  0.00  0.00    +0.056 C 
ATOM      2  C   UNL     1       2.096   1.909 -22.579  0.00  0.00    +0.112 C 
ATOM      3  C   UNL     1       2.261   2.241 -23.824  0.00  0.00    +0.127 C 
ATOM      4  C   UNL     1       1.250   2.665 -24.523  0.00  0.00    +0.174 C 
ATOM      5  C   UNL     1       0.074   2.756 -23.976  0.00  0.00    +0.101 A 
ATOM      6  C   UNL     1      -0.090   2.424 -22.730  0.00  0.00    +0.139 A 
ATOM      7  C   UNL     1      -1.266   2.515 -22.183  0.00  0.00    +0.093 A 
ATOM      8  C   UNL     1      -2.277   2.939 -22.882  0.00  0.00    +0.146 A 
ATOM      9  O   UNL     1      -3.453   3.030 -22.335  0.00  0.00    -0.422 OA
ATOM     10  C   UNL     1      -4.463   3.454 -23.034  0.00  0.00    +0.337 A 
ATOM     11  C   UNL     1      -4.299   3.787 -24.279  0.00  0.00    +0.093 A 
ATOM     12  C   UNL     1      -3.123   3.696 -24.827  0.00  0.00    +0.022 A 
ATOM     13  O   UNL     1      -5.640   3.546 -22.487  0.00  0.00    -0.245 OA
ATOM     14  C   UNL     1      -2.113   3.272 -24.128  0.00  0.00    +0.060 A 
ATOM     15  C   UNL     1      -0.936   3.180 -24.675  0.00  0.00    +0.141 A 
ATOM     16  O   UNL     1       1.415   2.998 -25.770  0.00  0.00    -0.292 OA
ATOM     17  C   UNL     1       3.368   1.673 -22.709  0.00  0.00    +0.056 C 
ATOM     18  O   UNL     1       0.920   2.000 -22.031  0.00  0.00    -0.485 OA
ENDROOT
BRANCH  15  19
ATOM     19  O   UNL     1      -0.772   3.513 -25.921  0.00  0.00    -0.505 OA
ATOM     20  H   UNL     1      -1.079   4.342 -26.229  0.00  0.00    +0.292 HD
ENDBRANCH  15  19
TORSDOF 1
ENDMDL
MODEL 3
REMARK VINA RESULT:    -8.988      1.192      5.883
REMARK INTER + INTRA:          -9.251
REMARK INTER:                  -9.251
REMARK INTRA:                   0.000
REMARK UNBOUND:                 0.000
REMARK  Name = ZINC000005734433
REMARK  3 active torsions:
REMARK  status: ('A' for Active; 'I' for Inactive)
REMARK    1  A    between atoms: C_1  and  C_2
REMARK    2  A    between atoms: C_2  and  C_3
REMARK    3  A    between atoms: C_17  and  O_18
REMARK                            x       y       z     vdW  Elec       q    Type
REMARK                         _______ _______ _______ _____ _____    ______ ____
ROOT
ATOM      1  C   UNL     1       3.091   2.310 -24.372  0.00  0.00    +0.056 C 
ATOM      2  C   UNL     1       2.288   1.992 -23.401  0.00  0.00    +0.112 C 
ATOM      3  C   UNL     1       1.870   1.494 -22.275  0.00  0.00    +0.127 C 
ATOM      4  C   UNL     1       0.622   1.622 -21.931  0.00  0.00    +0.174 C 
ATOM      5  C   UNL     1      -0.206   2.247 -22.714  0.00  0.00    +0.101 A 
ATOM      6  C   UNL     1       0.212   2.744 -23.840  0.00  0.00    +0.139 A 
ATOM      7  C   UNL     1      -0.617   3.369 -24.622  0.00  0.00    +0.093 A 
ATOM      8  C   UNL     1      -1.864   3.497 -24.279  0.00  0.00    +0.146 A 
ATOM      9  O   UNL     1      -2.693   4.122 -25.061  0.00  0.00    -0.422 OA
ATOM     10  C   UNL     1      -3.940   4.250 -24.717  0.00  0.00    +0.337 A 
ATOM     11  C   UNL     1      -4.358   3.753 -23.591  0.00  0.00    +0.093 A 
ATOM     12  C   UNL     1      -3.530   3.128 -22.809  0.00  0.00    +0.022 A 
ATOM     13  O   UNL     1      -4.770   4.875 -25.500  0.00  0.00    -0.245 OA
ATOM     14  C   UNL     1      -2.283   3.000 -23.153  0.00  0.00    +0.060 A 
ATOM     15  C   UNL     1      -1.453   2.375 -22.370  0.00  0.00    +0.141 A 
ATOM     16  O   UNL     1       0.204   1.125 -20.805  0.00  0.00    -0.292 OA
ATOM     17  C   UNL     1       3.396   1.477 -22.956  0.00  0.00    +0.056 C 
ATOM     18  O   UNL     1       1.459   2.617 -24.183  0.00  0.00    -0.485 OA
ENDROOT
BRANCH  15  19
ATOM     19  O   UNL     1      -1.872   1.878 -21.244  0.00  0.00    -0.505 OA
ATOM     20  H   UNL     1      -2.788   1.853 -21.054  0.00  0.00    +0.292 HD
ENDBRANCH  15  19
TORSDOF 1
ENDMDL
MODEL 4
REMARK VINA RESULT:    -8.952      1.400      2.721
REMARK INTER + INTRA:          -9.214
REMARK INTER:                  -9.214
REMARK INTRA:                   0.000
REMARK UNBOUND:                 0.000
REMARK  Name = ZINC000005734433
REMARK  3 active torsions:
REMARK  status: ('A' for Active; 'I' for Inactive)
REMARK    1  A    between atoms: C_1  and  C_2
REMARK    2  A    between atoms: C_2  and  C_3
REMARK    3  A    between atoms: C_17  and  O_18
REMARK                            x       y       z     vdW  Elec       q    Type
REMARK                         _______ _______ _______ _____ _____    ______ ____
ROOT
ATOM      1  C   UNL     1      -4.166   4.226 -25.484  0.00  0.00    +0.056 C 
ATOM      2  C   UNL     1      -3.898   3.754 -24.304  0.00  0.00    +0.112 C 
ATOM      3  C   UNL     1      -4.074   3.364 -23.076  0.00  0.00    +0.127 C 
ATOM      4  C   UNL     1      -3.069   2.900 -22.392  0.00  0.00    +0.174 C 
ATOM      5  C   UNL     1      -1.891   2.827 -22.936  0.00  0.00    +0.101 A 
ATOM      6  C   UNL     1      -1.717   3.217 -24.164  0.00  0.00    +0.139 A 
ATOM      7  C   UNL     1      -0.539   3.143 -24.708  0.00  0.00    +0.093 A 
ATOM      8  C   UNL     1       0.466   2.679 -24.024  0.00  0.00    +0.146 A 
ATOM      9  O   UNL     1       1.644   2.606 -24.568  0.00  0.00    -0.422 OA
ATOM     10  C   UNL     1       2.647   2.142 -23.884  0.00  0.00    +0.337 A 
ATOM     11  C   UNL     1       2.473   1.753 -22.656  0.00  0.00    +0.093 A 
ATOM     12  C   UNL     1       1.295   1.826 -22.112  0.00  0.00    +0.022 A 
ATOM     13  O   UNL     1       3.826   2.069 -24.428  0.00  0.00    -0.245 OA
ATOM     14  C   UNL     1       0.291   2.290 -22.796  0.00  0.00    +0.060 A 
ATOM     15  C   UNL     1      -0.888   2.364 -22.252  0.00  0.00    +0.141 A 
ATOM     16  O   UNL     1      -3.244   2.510 -21.163  0.00  0.00    -0.292 OA
ATOM     17  C   UNL     1      -5.170   3.991 -24.170  0.00  0.00    +0.056 C 
ATOM     18  O   UNL     1      -2.720   3.680 -24.848  0.00  0.00    -0.485 OA
ENDROOT
BRANCH  15  19
ATOM     19  O   UNL     1      -1.062   1.974 -21.024  0.00  0.00    -0.505 OA
ATOM     20  H   UNL     1      -0.828   2.539 -20.315  0.00  0.00    +0.292 HD
ENDBRANCH  15  19
TORSDOF 1
ENDMDL
MODEL 5
REMARK VINA RESULT:    -8.806      1.978      5.311
REMARK INTER + INTRA:          -9.064
REMARK INTER:                  -9.064
REMARK INTRA:                   0.000
REMARK UNBOUND:                 0.000
REMARK  Name = ZINC000005734433
REMARK  3 active torsions:
REMARK  status: ('A' for Active; 'I' for Inactive)
REMARK    1  A    between atoms: C_1  and  C_2
REMARK    2  A    between atoms: C_2  and  C_3
REMARK    3  A    between atoms: C_17  and  O_18
REMARK                            x       y       z     vdW  Elec       q    Type
REMARK                         _______ _______ _______ _____ _____    ______ ____
ROOT
ATOM      1  C   UNL     1       3.369   0.920 -23.326  0.00  0.00    +0.056 C 
ATOM      2  C   UNL     1       2.910   2.126 -23.479  0.00  0.00    +0.112 C 
ATOM      3  C   UNL     1       2.867   3.384 -23.804  0.00  0.00    +0.127 C 
ATOM      4  C   UNL     1       1.787   4.075 -23.582  0.00  0.00    +0.174 C 
ATOM      5  C   UNL     1       0.753   3.508 -23.036  0.00  0.00    +0.101 A 
ATOM      6  C   UNL     1       0.798   2.250 -22.711  0.00  0.00    +0.139 A 
ATOM      7  C   UNL     1      -0.236   1.683 -22.165  0.00  0.00    +0.093 A 
ATOM      8  C   UNL     1      -1.316   2.374 -21.943  0.00  0.00    +0.146 A 
ATOM      9  O   UNL     1      -2.350   1.807 -21.397  0.00  0.00    -0.422 OA
ATOM     10  C   UNL     1      -3.428   2.498 -21.175  0.00  0.00    +0.337 A 
ATOM     11  C   UNL     1      -3.472   3.756 -21.500  0.00  0.00    +0.093 A 
ATOM     12  C   UNL     1      -2.438   4.323 -22.046  0.00  0.00    +0.022 A 
ATOM     13  O   UNL     1      -4.463   1.931 -20.629  0.00  0.00    -0.245 OA
ATOM     14  C   UNL     1      -1.360   3.632 -22.268  0.00  0.00    +0.060 A 
ATOM     15  C   UNL     1      -0.325   4.199 -22.814  0.00  0.00    +0.141 A 
ATOM     16  O   UNL     1       1.743   5.334 -23.907  0.00  0.00    -0.292 OA
ATOM     17  C   UNL     1       4.104   2.274 -23.973  0.00  0.00    +0.056 C 
ATOM     18  O   UNL     1       1.876   1.559 -22.933  0.00  0.00    -0.485 OA
ENDROOT
BRANCH  15  19
ATOM     19  O   UNL     1      -0.369   5.457 -23.139  0.00  0.00    -0.505 OA
ATOM     20  H   UNL     1      -0.344   6.114 -22.473  0.00  0.00    +0.292 HD
ENDBRANCH  15  19
TORSDOF 1
ENDMDL
MODEL 6
REMARK VINA RESULT:    -8.343      1.619      5.590
REMARK INTER + INTRA:          -8.587
REMARK INTER:                  -8.587
REMARK INTRA:                   0.000
REMARK UNBOUND:                 0.000
REMARK  Name = ZINC000005734433
REMARK  3 active torsions:
REMARK  status: ('A' for Active; 'I' for Inactive)
REMARK    1  A    between atoms: C_1  and  C_2
REMARK    2  A    between atoms: C_2  and  C_3
REMARK    3  A    between atoms: C_17  and  O_18
REMARK                            x       y       z     vdW  Elec       q    Type
REMARK                         _______ _______ _______ _____ _____    ______ ____
ROOT
ATOM      1  C   UNL     1       2.099   4.873 -24.251  0.00  0.00    +0.056 C 
ATOM      2  C   UNL     1       1.911   3.854 -23.466  0.00  0.00    +0.112 C 
ATOM      3  C   UNL     1       2.171   2.810 -22.737  0.00  0.00    +0.127 C 
ATOM      4  C   UNL     1       1.207   2.191 -22.121  0.00  0.00    +0.174 C 
ATOM      5  C   UNL     1      -0.016   2.617 -22.235  0.00  0.00    +0.101 A 
ATOM      6  C   UNL     1      -0.275   3.661 -22.965  0.00  0.00    +0.139 A 
ATOM      7  C   UNL     1      -1.498   4.086 -23.079  0.00  0.00    +0.093 A 
ATOM      8  C   UNL     1      -2.462   3.468 -22.463  0.00  0.00    +0.146 A 
ATOM      9  O   UNL     1      -3.685   3.893 -22.578  0.00  0.00    -0.422 OA
ATOM     10  C   UNL     1      -4.648   3.274 -21.962  0.00  0.00    +0.337 A 
ATOM     11  C   UNL     1      -4.388   2.230 -21.232  0.00  0.00    +0.093 A 
ATOM     12  C   UNL     1      -3.166   1.805 -21.118  0.00  0.00    +0.022 A 
ATOM     13  O   UNL     1      -5.872   3.700 -22.076  0.00  0.00    -0.245 OA
ATOM     14  C   UNL     1      -2.202   2.424 -21.734  0.00  0.00    +0.060 A 
ATOM     15  C   UNL     1      -0.979   1.998 -21.620  0.00  0.00    +0.141 A 
ATOM     16  O   UNL     1       1.467   1.147 -21.391  0.00  0.00    -0.292 OA
ATOM     17  C   UNL     1       3.200   3.783 -23.625  0.00  0.00    +0.056 C 
ATOM     18  O   UNL     1       0.688   4.280 -23.581  0.00  0.00    -0.485 OA
ENDROOT
BRANCH  15  19
ATOM     19  O   UNL     1      -0.719   0.954 -20.890  0.00  0.00    -0.505 OA
ATOM     20  H   UNL     1      -0.445   1.060 -20.001  0.00  0.00    +0.292 HD
ENDBRANCH  15  19
TORSDOF 1
ENDMDL
MODEL 7
REMARK VINA RESULT:    -8.331      1.923      6.130
REMARK INTER + INTRA:          -8.575
REMARK INTER:                  -8.575
REMARK INTRA:                   0.000
REMARK UNBOUND:                 0.000
REMARK  Name = ZINC000005734433
REMARK  3 active torsions:
REMARK  status: ('A' for Active; 'I' for Inactive)
REMARK    1  A    between atoms: C_1  and  C_2
REMARK    2  A    between atoms: C_2  and  C_3
REMARK    3  A    between atoms: C_17  and  O_18
REMARK                            x       y       z     vdW  Elec       q    Type
REMARK                         _______ _______ _______ _____ _____    ______ ____
ROOT
ATOM      1  C   UNL     1       4.783   4.364 -23.225  0.00  0.00    +0.056 C 
ATOM      2  C   UNL     1       4.084   3.368 -22.766  0.00  0.00    +0.112 C 
ATOM      3  C   UNL     1       3.799   2.249 -22.169  0.00  0.00    +0.127 C 
ATOM      4  C   UNL     1       2.569   1.830 -22.130  0.00  0.00    +0.174 C 
ATOM      5  C   UNL     1       1.625   2.529 -22.686  0.00  0.00    +0.101 A 
ATOM      6  C   UNL     1       1.911   3.648 -23.283  0.00  0.00    +0.139 A 
ATOM      7  C   UNL     1       0.968   4.348 -23.840  0.00  0.00    +0.093 A 
ATOM      8  C   UNL     1      -0.262   3.928 -23.800  0.00  0.00    +0.146 A 
ATOM      9  O   UNL     1      -1.206   4.628 -24.357  0.00  0.00    -0.422 OA
ATOM     10  C   UNL     1      -2.435   4.208 -24.317  0.00  0.00    +0.337 A 
ATOM     11  C   UNL     1      -2.722   3.089 -23.720  0.00  0.00    +0.093 A 
ATOM     12  C   UNL     1      -1.778   2.390 -23.164  0.00  0.00    +0.022 A 
ATOM     13  O   UNL     1      -3.380   4.908 -24.874  0.00  0.00    -0.245 OA
ATOM     14  C   UNL     1      -0.549   2.809 -23.204  0.00  0.00    +0.060 A 
ATOM     15  C   UNL     1       0.396   2.110 -22.646  0.00  0.00    +0.141 A 
ATOM     16  O   UNL     1       2.282   0.710 -21.532  0.00  0.00    -0.292 OA
ATOM     17  C   UNL     1       5.271   3.015 -22.368  0.00  0.00    +0.056 C 
ATOM     18  O   UNL     1       3.141   4.068 -23.323  0.00  0.00    -0.485 OA
ENDROOT
BRANCH  15  19
ATOM     19  O   UNL     1       0.109   0.991 -22.050  0.00  0.00    -0.505 OA
ATOM     20  H   UNL     1      -0.400   0.996 -21.264  0.00  0.00    +0.292 HD
ENDBRANCH  15  19
TORSDOF 1
ENDMDL
MODEL 8
REMARK VINA RESULT:    -8.227      2.214      3.529
REMARK INTER + INTRA:          -8.467
REMARK INTER:                  -8.467
REMARK INTRA:                   0.000
REMARK UNBOUND:                 0.000
REMARK  Name = ZINC000005734433
REMARK  3 active torsions:
REMARK  status: ('A' for Active; 'I' for Inactive)
REMARK    1  A    between atoms: C_1  and  C_2
REMARK    2  A    between atoms: C_2  and  C_3
REMARK    3  A    between atoms: C_17  and  O_18
REMARK                            x       y       z     vdW  Elec       q    Type
REMARK                         _______ _______ _______ _____ _____    ______ ____
ROOT
ATOM      1  C   UNL     1      -2.258   4.498 -24.244  0.00  0.00    +0.056 C 
ATOM      2  C   UNL     1      -1.831   3.554 -23.460  0.00  0.00    +0.112 C 
ATOM      3  C   UNL     1      -1.851   2.540 -22.648  0.00  0.00    +0.127 C 
ATOM      4  C   UNL     1      -0.735   2.054 -22.188  0.00  0.00    +0.174 C 
ATOM      5  C   UNL     1       0.398   2.584 -22.541  0.00  0.00    +0.101 A 
ATOM      6  C   UNL     1       0.417   3.598 -23.354  0.00  0.00    +0.139 A 
ATOM      7  C   UNL     1       1.550   4.128 -23.706  0.00  0.00    +0.093 A 
ATOM      8  C   UNL     1       2.666   3.642 -23.247  0.00  0.00    +0.146 A 
ATOM      9  O   UNL     1       3.799   4.172 -23.600  0.00  0.00    -0.422 OA
ATOM     10  C   UNL     1       4.914   3.686 -23.140  0.00  0.00    +0.337 A 
ATOM     11  C   UNL     1       4.895   2.672 -22.328  0.00  0.00    +0.093 A 
ATOM     12  C   UNL     1       3.762   2.142 -21.975  0.00  0.00    +0.022 A 
ATOM     13  O   UNL     1       6.048   4.216 -23.493  0.00  0.00    -0.245 OA
ATOM     14  C   UNL     1       2.647   2.628 -22.435  0.00  0.00    +0.060 A 
ATOM     15  C   UNL     1       1.513   2.098 -22.082  0.00  0.00    +0.141 A 
ATOM     16  O   UNL     1      -0.753   1.039 -21.375  0.00  0.00    -0.292 OA
ATOM     17  C   UNL     1      -3.114   3.353 -23.379  0.00  0.00    +0.056 C 
ATOM     18  O   UNL     1      -0.698   4.084 -23.813  0.00  0.00    -0.485 OA
ENDROOT
BRANCH  15  19
ATOM     19  O   UNL     1       1.495   1.083 -21.269  0.00  0.00    -0.505 OA
ATOM     20  H   UNL     1       0.691   0.633 -21.101  0.00  0.00    +0.292 HD
ENDBRANCH  15  19
TORSDOF 1
ENDMDL
MODEL 9
REMARK VINA RESULT:    -8.046      3.669      4.987
REMARK INTER + INTRA:          -8.281
REMARK INTER:                  -8.281
REMARK INTRA:                   0.000
REMARK UNBOUND:                 0.000
REMARK  Name = ZINC000005734433
REMARK  3 active torsions:
REMARK  status: ('A' for Active; 'I' for Inactive)
REMARK    1  A    between atoms: C_1  and  C_2
REMARK    2  A    between atoms: C_2  and  C_3
REMARK    3  A    between atoms: C_17  and  O_18
REMARK                            x       y       z     vdW  Elec       q    Type
REMARK                         _______ _______ _______ _____ _____    ______ ____
ROOT
ATOM      1  C   UNL     1      -0.686   5.105 -23.523  0.00  0.00    +0.056 C 
ATOM      2  C   UNL     1       0.052   4.120 -23.940  0.00  0.00    +0.112 C 
ATOM      3  C   UNL     1       0.381   2.987 -24.485  0.00  0.00    +0.127 C 
ATOM      4  C   UNL     1       1.628   2.619 -24.515  0.00  0.00    +0.174 C 
ATOM      5  C   UNL     1       2.544   3.383 -24.000  0.00  0.00    +0.101 A 
ATOM      6  C   UNL     1       2.214   4.516 -23.455  0.00  0.00    +0.139 A 
ATOM      7  C   UNL     1       3.130   5.281 -22.940  0.00  0.00    +0.093 A 
ATOM      8  C   UNL     1       4.377   4.913 -22.970  0.00  0.00    +0.146 A 
ATOM      9  O   UNL     1       5.293   5.678 -22.455  0.00  0.00    -0.422 OA
ATOM     10  C   UNL     1       6.539   5.310 -22.485  0.00  0.00    +0.337 A 
ATOM     11  C   UNL     1       6.869   4.177 -23.031  0.00  0.00    +0.093 A 
ATOM     12  C   UNL     1       5.953   3.412 -23.546  0.00  0.00    +0.022 A 
ATOM     13  O   UNL     1       7.456   6.075 -21.970  0.00  0.00    -0.245 OA
ATOM     14  C   UNL     1       4.707   3.780 -23.515  0.00  0.00    +0.060 A 
ATOM     15  C   UNL     1       3.790   3.015 -24.031  0.00  0.00    +0.141 A 
ATOM     16  O   UNL     1       1.959   1.485 -25.061  0.00  0.00    -0.292 OA
ATOM     17  C   UNL     1      -1.121   3.697 -24.310  0.00  0.00    +0.056 C 
ATOM     18  O   UNL     1       0.968   4.884 -23.424  0.00  0.00    -0.485 OA
ENDROOT
BRANCH  15  19
ATOM     19  O   UNL     1       4.120   1.882 -24.576  0.00  0.00    -0.505 OA
ATOM     20  H   UNL     1       4.722   1.311 -24.142  0.00  0.00    +0.292 HD
ENDBRANCH  15  19
TORSDOF 1
ENDMDL
