MODEL 1
REMARK VINA RESULT:   -11.974      0.000      0.000
REMARK INTER + INTRA:         -15.183
REMARK INTER:                 -14.372
REMARK INTRA:                  -0.811
REMARK UNBOUND:                -1.109
REMARK  Name = COc1ccc2c(c1Oc1ccccc1)[C@@]13CC=CC=C1[C@@H](C2)NCC3                  ZINC000096316414
REMARK  4 active torsions:
REMARK  status: ('A' for Active; 'I' for Inactive)
REMARK    1  A    between atoms: C_1  and  O_2
REMARK    2  A    between atoms: O_2  and  C_3
REMARK    3  A    between atoms: C_8  and  O_9
REMARK    4  A    between atoms: O_9  and  C_10
REMARK                            x       y       z     vdW  Elec       q    Type
REMARK                         _______ _______ _______ _____ _____    ______ ____
ROOT
ATOM      1  C   UNL     1      -2.202   2.695 -21.447  0.00  0.00    +0.162 A 
ATOM      2  C   UNL     1      -3.221   2.824 -20.723  0.00  0.00    +0.050 A 
ATOM      3  C   UNL     1      -4.308   3.153 -21.257  0.00  0.00    +0.008 A 
ATOM      4  C   UNL     1      -4.348   3.372 -22.689  0.00  0.00    -0.034 A 
ATOM      5  C   UNL     1      -3.463   3.248 -23.237  0.00  0.00    +0.013 A 
ATOM      6  C   UNL     1      -3.274   3.339 -24.155  0.00  0.00    +0.034 C 
ATOM      7  C   UNL     1      -2.189   3.183 -24.794  0.00  0.00    +0.043 C 
ATOM      8  C   UNL     1      -2.165   3.365 -26.074  0.00  0.00    -0.026 C 
ATOM      9  C   UNL     1      -3.258   3.712 -26.719  0.00  0.00    -0.004 C 
ATOM     10  C   UNL     1      -4.391   3.882 -26.095  0.00  0.00    +0.005 C 
ATOM     11  C   UNL     1      -3.434   3.132 -22.492  0.00  0.00    +0.067 C 
ATOM     12  C   UNL     1      -4.760   3.342 -21.837  0.00  0.00    +0.131 C 
ATOM     13  N   UNL     1      -5.684   3.656 -22.522  0.00  0.00    +0.233 N 
ATOM     14  H   UNL     1      -5.883   4.604 -22.203  0.00  0.00    +0.202 HD
ATOM     15  H   UNL     1      -6.396   2.938 -22.392  0.00  0.00    +0.202 HD
ATOM     16  C   UNL     1      -5.524   3.846 -24.067  0.00  0.00    +0.095 C 
ATOM     17  C   UNL     1      -4.452   3.713 -24.847  0.00  0.00    -0.011 C 
ATOM     18  C   UNL     1      -5.391   3.682 -23.158  0.00  0.00    +0.094 C 
ATOM     19  C   UNL     1      -2.308   2.904 -22.706  0.00  0.00    +0.174 A 
ENDROOT
BRANCH   1  21
ATOM     20  C   UNL     1      -0.484   1.218 -21.210  0.00  0.00    +0.277 C 
ATOM     21  O   UNL     1      -1.015   2.354 -20.990  0.00  0.00    -0.491 OA
ENDBRANCH   1  21
BRANCH  19  22
ATOM     22  O   UNL     1      -1.231   2.814 -23.793  0.00  0.00    -0.452 OA
BRANCH  22  23
ATOM     23  C   UNL     1       0.061   3.316 -23.871  0.00  0.00    +0.129 A 
ATOM     24  C   UNL     1       0.226   4.539 -23.518  0.00  0.00    +0.046 A 
ATOM     25  C   UNL     1       1.396   5.065 -23.566  0.00  0.00    +0.004 A 
ATOM     26  C   UNL     1       2.395   4.373 -23.965  0.00  0.00    +0.000 A 
ATOM     27  C   UNL     1       2.232   3.149 -24.319  0.00  0.00    +0.004 A 
ATOM     28  C   UNL     1       1.064   2.622 -24.271  0.00  0.00    +0.046 A 
ENDBRANCH  22  23
ENDBRANCH  19  22
TORSDOF 3
ENDMDL
MODEL 2
REMARK VINA RESULT:   -10.545      1.375      3.446
REMARK INTER + INTRA:         -13.503
REMARK INTER:                 -13.017
REMARK INTRA:                  -0.486
REMARK UNBOUND:                -1.109
REMARK  Name = COc1ccc2c(c1Oc1ccccc1)[C@@]13CC=CC=C1[C@@H](C2)NCC3                  ZINC000096316414
REMARK  4 active torsions:
REMARK  status: ('A' for Active; 'I' for Inactive)
REMARK    1  A    between atoms: C_1  and  O_2
REMARK    2  A    between atoms: O_2  and  C_3
REMARK    3  A    between atoms: C_8  and  O_9
REMARK    4  A    between atoms: O_9  and  C_10
REMARK                            x       y       z     vdW  Elec       q    Type
REMARK                         _______ _______ _______ _____ _____    ______ ____
ROOT
ATOM      1  C   UNL     1      -1.274   3.331 -25.242  0.00  0.00    +0.162 A 
ATOM      2  C   UNL     1      -2.131   3.456 -26.153  0.00  0.00    +0.050 A 
ATOM      3  C   UNL     1      -3.339   3.582 -25.837  0.00  0.00    +0.008 A 
ATOM      4  C   UNL     1      -3.702   3.579 -24.434  0.00  0.00    -0.034 A 
ATOM      5  C   UNL     1      -2.939   3.471 -23.723  0.00  0.00    +0.013 A 
ATOM      6  C   UNL     1      -2.958   3.444 -22.781  0.00  0.00    +0.034 C 
ATOM      7  C   UNL     1      -2.016   3.311 -21.941  0.00  0.00    +0.043 C 
ATOM      8  C   UNL     1      -2.280   3.301 -20.676  0.00  0.00    -0.026 C 
ATOM      9  C   UNL     1      -3.519   3.428 -20.252  0.00  0.00    -0.004 C 
ATOM     10  C   UNL     1      -4.513   3.566 -21.086  0.00  0.00    +0.005 C 
ATOM     11  C   UNL     1      -2.742   3.472 -24.451  0.00  0.00    +0.067 C 
ATOM     12  C   UNL     1      -3.922   3.633 -25.353  0.00  0.00    +0.131 C 
ATOM     13  N   UNL     1      -5.001   3.739 -24.857  0.00  0.00    +0.233 N 
ATOM     14  H   UNL     1      -5.465   2.879 -25.151  0.00  0.00    +0.202 HD
ATOM     15  H   UNL     1      -5.380   4.631 -25.178  0.00  0.00    +0.202 HD
ATOM     16  C   UNL     1      -5.190   3.712 -23.305  0.00  0.00    +0.095 C 
ATOM     17  C   UNL     1      -4.292   3.580 -22.327  0.00  0.00    -0.011 C 
ATOM     18  C   UNL     1      -4.852   3.701 -24.174  0.00  0.00    +0.094 C 
ATOM     19  C   UNL     1      -1.664   3.336 -24.022  0.00  0.00    +0.174 A 
ENDROOT
BRANCH   1  21
ATOM     20  C   UNL     1       0.768   4.153 -25.823  0.00  0.00    +0.277 C 
ATOM     21  O   UNL     1       0.016   3.192 -25.461  0.00  0.00    -0.491 OA
ENDBRANCH   1  21
BRANCH  19  22
ATOM     22  O   UNL     1      -0.831   3.202 -22.742  0.00  0.00    -0.452 OA
BRANCH  22  23
ATOM     23  C   UNL     1       0.419   2.651 -22.495  0.00  0.00    +0.129 A 
ATOM     24  C   UNL     1       1.431   3.425 -22.653  0.00  0.00    +0.046 A 
ATOM     25  C   UNL     1       2.615   2.978 -22.441  0.00  0.00    +0.004 A 
ATOM     26  C   UNL     1       2.787   1.765 -22.073  0.00  0.00    +0.000 A 
ATOM     27  C   UNL     1       1.775   0.989 -21.914  0.00  0.00    +0.004 A 
ATOM     28  C   UNL     1       0.591   1.434 -22.126  0.00  0.00    +0.046 A 
ENDBRANCH  22  23
ENDBRANCH  19  22
TORSDOF 3
ENDMDL
MODEL 3
REMARK VINA RESULT:   -10.504      0.991      3.456
REMARK INTER + INTRA:         -13.455
REMARK INTER:                 -12.863
REMARK INTRA:                  -0.593
REMARK UNBOUND:                -1.109
REMARK  Name = COc1ccc2c(c1Oc1ccccc1)[C@@]13CC=CC=C1[C@@H](C2)NCC3                  ZINC000096316414
REMARK  4 active torsions:
REMARK  status: ('A' for Active; 'I' for Inactive)
REMARK    1  A    between atoms: C_1  and  O_2
REMARK    2  A    between atoms: O_2  and  C_3
REMARK    3  A    between atoms: C_8  and  O_9
REMARK    4  A    between atoms: O_9  and  C_10
REMARK                            x       y       z     vdW  Elec       q    Type
REMARK                         _______ _______ _______ _____ _____    ______ ____
ROOT
ATOM      1  C   UNL     1      -3.493   3.736 -25.654  0.00  0.00    +0.162 A 
ATOM      2  C   UNL     1      -4.692   4.090 -25.529  0.00  0.00    +0.050 A 
ATOM      3  C   UNL     1      -5.240   3.992 -24.404  0.00  0.00    +0.008 A 
ATOM      4  C   UNL     1      -4.470   3.474 -23.290  0.00  0.00    -0.034 A 
ATOM      5  C   UNL     1      -3.474   3.197 -23.461  0.00  0.00    +0.013 A 
ATOM      6  C   UNL     1      -2.813   2.846 -22.889  0.00  0.00    +0.034 C 
ATOM      7  C   UNL     1      -1.609   2.517 -23.122  0.00  0.00    +0.043 C 
ATOM      8  C   UNL     1      -0.875   2.049 -22.167  0.00  0.00    -0.026 C 
ATOM      9  C   UNL     1      -1.366   1.912 -20.954  0.00  0.00    -0.004 C 
ATOM     10  C   UNL     1      -2.598   2.239 -20.677  0.00  0.00    +0.005 C 
ATOM     11  C   UNL     1      -3.868   3.465 -24.046  0.00  0.00    +0.067 C 
ATOM     12  C   UNL     1      -5.267   3.821 -23.665  0.00  0.00    +0.131 C 
ATOM     13  N   UNL     1      -5.604   3.653 -22.533  0.00  0.00    +0.233 N 
ATOM     14  H   UNL     1      -6.297   2.909 -22.617  0.00  0.00    +0.202 HD
ATOM     15  H   UNL     1      -5.907   4.563 -22.185  0.00  0.00    +0.202 HD
ATOM     16  C   UNL     1      -4.616   3.077 -21.467  0.00  0.00    +0.095 C 
ATOM     17  C   UNL     1      -3.343   2.698 -21.584  0.00  0.00    -0.011 C 
ATOM     18  C   UNL     1      -5.021   3.396 -22.244  0.00  0.00    +0.094 C 
ATOM     19  C   UNL     1      -2.870   3.287 -24.628  0.00  0.00    +0.174 A 
ENDROOT
BRANCH   1  21
ATOM     20  C   UNL     1      -3.327   3.482 -27.911  0.00  0.00    +0.277 C 
ATOM     21  O   UNL     1      -2.823   3.797 -26.785  0.00  0.00    -0.491 OA
ENDBRANCH   1  21
BRANCH  19  22
ATOM     22  O   UNL     1      -1.423   2.797 -24.516  0.00  0.00    -0.452 OA
BRANCH  22  23
ATOM     23  C   UNL     1      -0.217   3.469 -24.367  0.00  0.00    +0.129 A 
ATOM     24  C   UNL     1       0.829   2.882 -24.823  0.00  0.00    +0.046 A 
ATOM     25  C   UNL     1       1.976   3.450 -24.717  0.00  0.00    +0.004 A 
ATOM     26  C   UNL     1       2.076   4.597 -24.158  0.00  0.00    +0.000 A 
ATOM     27  C   UNL     1       1.029   5.185 -23.701  0.00  0.00    +0.004 A 
ATOM     28  C   UNL     1      -0.118   4.619 -23.807  0.00  0.00    +0.046 A 
ENDBRANCH  22  23
ENDBRANCH  19  22
TORSDOF 3
ENDMDL
MODEL 4
REMARK VINA RESULT:    -9.812      2.312      6.058
REMARK INTER + INTRA:         -12.642
REMARK INTER:                 -11.495
REMARK INTRA:                  -1.147
REMARK UNBOUND:                -1.109
REMARK  Name = COc1ccc2c(c1Oc1ccccc1)[C@@]13CC=CC=C1[C@@H](C2)NCC3                  ZINC000096316414
REMARK  4 active torsions:
REMARK  status: ('A' for Active; 'I' for Inactive)
REMARK    1  A    between atoms: C_1  and  O_2
REMARK    2  A    between atoms: O_2  and  C_3
REMARK    3  A    between atoms: C_8  and  O_9
REMARK    4  A    between atoms: O_9  and  C_10
REMARK                            x       y       z     vdW  Elec       q    Type
REMARK                         _______ _______ _______ _____ _____    ______ ____
ROOT
ATOM      1  C   UNL     1      -0.972   3.303 -24.844  0.00  0.00    +0.162 A 
ATOM      2  C   UNL     1      -0.180   3.792 -25.688  0.00  0.00    +0.050 A 
ATOM      3  C   UNL     1       1.051   3.783 -25.441  0.00  0.00    +0.008 A 
ATOM      4  C   UNL     1       1.514   3.210 -24.193  0.00  0.00    -0.034 A 
ATOM      5  C   UNL     1       0.801   2.819 -23.531  0.00  0.00    +0.013 A 
ATOM      6  C   UNL     1       0.886   2.410 -22.687  0.00  0.00    +0.034 C 
ATOM      7  C   UNL     1       0.003   1.943 -21.904  0.00  0.00    +0.043 C 
ATOM      8  C   UNL     1       0.357   1.420 -20.776  0.00  0.00    -0.026 C 
ATOM      9  C   UNL     1       1.627   1.368 -20.434  0.00  0.00    -0.004 C 
ATOM     10  C   UNL     1       2.561   1.838 -21.213  0.00  0.00    +0.005 C 
ATOM     11  C   UNL     1       0.552   3.115 -24.179  0.00  0.00    +0.067 C 
ATOM     12  C   UNL     1       1.668   3.635 -25.025  0.00  0.00    +0.131 C 
ATOM     13  N   UNL     1       2.783   3.534 -24.613  0.00  0.00    +0.233 N 
ATOM     14  H   UNL     1       3.050   4.506 -24.460  0.00  0.00    +0.202 HD
ATOM     15  H   UNL     1       3.298   2.991 -25.306  0.00  0.00    +0.202 HD
ATOM     16  C   UNL     1       3.081   2.877 -23.226  0.00  0.00    +0.095 C 
ATOM     17  C   UNL     1       2.253   2.355 -22.321  0.00  0.00    -0.011 C 
ATOM     18  C   UNL     1       2.682   3.220 -23.996  0.00  0.00    +0.094 C 
ATOM     19  C   UNL     1      -0.496   2.813 -23.760  0.00  0.00    +0.174 A 
ENDROOT
BRANCH   1  21
ATOM     20  C   UNL     1      -3.019   4.295 -24.955  0.00  0.00    +0.277 C 
ATOM     21  O   UNL     1      -2.278   3.261 -25.001  0.00  0.00    -0.491 OA
ENDBRANCH   1  21
BRANCH  19  22
ATOM     22  O   UNL     1      -1.239   2.166 -22.586  0.00  0.00    -0.452 OA
BRANCH  22  23
ATOM     23  C   UNL     1      -2.261   2.620 -21.764  0.00  0.00    +0.129 A 
ATOM     24  C   UNL     1      -2.153   3.819 -21.319  0.00  0.00    +0.046 A 
ATOM     25  C   UNL     1      -3.064   4.300 -20.553  0.00  0.00    +0.004 A 
ATOM     26  C   UNL     1      -4.077   3.586 -20.234  0.00  0.00    +0.000 A 
ATOM     27  C   UNL     1      -4.187   2.386 -20.679  0.00  0.00    +0.004 A 
ATOM     28  C   UNL     1      -3.277   1.904 -21.444  0.00  0.00    +0.046 A 
ENDBRANCH  22  23
ENDBRANCH  19  22
TORSDOF 3
ENDMDL
MODEL 5
REMARK VINA RESULT:    -9.707      2.015      4.936
REMARK INTER + INTRA:         -12.519
REMARK INTER:                 -11.883
REMARK INTRA:                  -0.636
REMARK UNBOUND:                -1.109
REMARK  Name = COc1ccc2c(c1Oc1ccccc1)[C@@]13CC=CC=C1[C@@H](C2)NCC3                  ZINC000096316414
REMARK  4 active torsions:
REMARK  status: ('A' for Active; 'I' for Inactive)
REMARK    1  A    between atoms: C_1  and  O_2
REMARK    2  A    between atoms: O_2  and  C_3
REMARK    3  A    between atoms: C_8  and  O_9
REMARK    4  A    between atoms: O_9  and  C_10
REMARK                            x       y       z     vdW  Elec       q    Type
REMARK                         _______ _______ _______ _____ _____    ______ ____
ROOT
ATOM      1  C   UNL     1      -1.707   2.433 -21.472  0.00  0.00    +0.162 A 
ATOM      2  C   UNL     1      -1.049   1.696 -20.695  0.00  0.00    +0.050 A 
ATOM      3  C   UNL     1       0.137   1.409 -20.990  0.00  0.00    +0.008 A 
ATOM      4  C   UNL     1       0.705   1.938 -22.214  0.00  0.00    -0.034 A 
ATOM      5  C   UNL     1       0.102   2.547 -22.819  0.00  0.00    +0.013 A 
ATOM      6  C   UNL     1       0.271   2.983 -23.637  0.00  0.00    +0.034 C 
ATOM      7  C   UNL     1      -0.479   3.718 -24.350  0.00  0.00    +0.043 C 
ATOM      8  C   UNL     1      -0.026   4.217 -25.453  0.00  0.00    -0.026 C 
ATOM      9  C   UNL     1       1.207   3.970 -25.842  0.00  0.00    -0.004 C 
ATOM     10  C   UNL     1       2.006   3.220 -25.134  0.00  0.00    +0.005 C 
ATOM     11  C   UNL     1      -0.200   2.276 -22.183  0.00  0.00    +0.067 C 
ATOM     12  C   UNL     1       0.763   1.427 -21.420  0.00  0.00    +0.131 C 
ATOM     13  N   UNL     1       1.857   1.271 -21.868  0.00  0.00    +0.233 N 
ATOM     14  H   UNL     1       1.861   0.277 -22.098  0.00  0.00    +0.202 HD
ATOM     15  H   UNL     1       2.509   1.610 -21.161  0.00  0.00    +0.202 HD
ATOM     16  C   UNL     1       2.284   1.933 -23.219  0.00  0.00    +0.095 C 
ATOM     17  C   UNL     1       1.598   2.716 -24.053  0.00  0.00    -0.011 C 
ATOM     18  C   UNL     1       1.826   1.646 -22.458  0.00  0.00    +0.094 C 
ATOM     19  C   UNL     1      -1.144   2.866 -22.538  0.00  0.00    +0.174 A 
ENDROOT
BRANCH   1  21
ATOM     20  C   UNL     1      -3.295   3.630 -20.361  0.00  0.00    +0.277 C 
ATOM     21  O   UNL     1      -2.954   2.795 -21.260  0.00  0.00    -0.491 OA
ENDBRANCH   1  21
BRANCH  19  22
ATOM     22  O   UNL     1      -1.721   3.768 -23.635  0.00  0.00    -0.452 OA
BRANCH  22  23
ATOM     23  C   UNL     1      -2.860   3.670 -24.421  0.00  0.00    +0.129 A 
ATOM     24  C   UNL     1      -3.910   4.270 -23.991  0.00  0.00    +0.046 A 
ATOM     25  C   UNL     1      -4.998   4.219 -24.670  0.00  0.00    +0.004 A 
ATOM     26  C   UNL     1      -5.036   3.573 -25.773  0.00  0.00    +0.000 A 
ATOM     27  C   UNL     1      -3.986   2.972 -26.206  0.00  0.00    +0.004 A 
ATOM     28  C   UNL     1      -2.899   3.021 -25.528  0.00  0.00    +0.046 A 
ENDBRANCH  22  23
ENDBRANCH  19  22
TORSDOF 3
ENDMDL
MODEL 6
REMARK VINA RESULT:    -9.268      1.235      2.018
REMARK INTER + INTRA:         -12.003
REMARK INTER:                 -11.330
REMARK INTRA:                  -0.673
REMARK UNBOUND:                -1.109
REMARK  Name = COc1ccc2c(c1Oc1ccccc1)[C@@]13CC=CC=C1[C@@H](C2)NCC3                  ZINC000096316414
REMARK  4 active torsions:
REMARK  status: ('A' for Active; 'I' for Inactive)
REMARK    1  A    between atoms: C_1  and  O_2
REMARK    2  A    between atoms: O_2  and  C_3
REMARK    3  A    between atoms: C_8  and  O_9
REMARK    4  A    between atoms: O_9  and  C_10
REMARK                            x       y       z     vdW  Elec       q    Type
REMARK                         _______ _______ _______ _____ _____    ______ ____
ROOT
ATOM      1  C   UNL     1      -3.429   3.696 -21.598  0.00  0.00    +0.162 A 
ATOM      2  C   UNL     1      -4.685   3.689 -21.547  0.00  0.00    +0.050 A 
ATOM      3  C   UNL     1      -5.336   3.660 -22.619  0.00  0.00    +0.008 A 
ATOM      4  C   UNL     1      -4.618   3.637 -23.877  0.00  0.00    -0.034 A 
ATOM      5  C   UNL     1      -3.570   3.645 -23.852  0.00  0.00    +0.013 A 
ATOM      6  C   UNL     1      -2.925   3.634 -24.538  0.00  0.00    +0.034 C 
ATOM      7  C   UNL     1      -1.657   3.644 -24.479  0.00  0.00    +0.043 C 
ATOM      8  C   UNL     1      -0.963   3.625 -25.570  0.00  0.00    -0.026 C 
ATOM      9  C   UNL     1      -1.562   3.594 -26.741  0.00  0.00    -0.004 C 
ATOM     10  C   UNL     1      -2.863   3.583 -26.840  0.00  0.00    +0.005 C 
ATOM     11  C   UNL     1      -3.937   3.657 -23.193  0.00  0.00    +0.067 C 
ATOM     12  C   UNL     1      -5.419   3.643 -23.374  0.00  0.00    +0.131 C 
ATOM     13  N   UNL     1      -5.852   3.615 -24.484  0.00  0.00    +0.233 N 
ATOM     14  H   UNL     1      -6.305   4.525 -24.567  0.00  0.00    +0.202 HD
ATOM     15  H   UNL     1      -6.430   2.776 -24.548  0.00  0.00    +0.202 HD
ATOM     16  C   UNL     1      -4.903   3.594 -25.727  0.00  0.00    +0.095 C 
ATOM     17  C   UNL     1      -3.571   3.601 -25.798  0.00  0.00    -0.011 C 
ATOM     18  C   UNL     1      -5.267   3.611 -24.868  0.00  0.00    +0.094 C 
ATOM     19  C   UNL     1      -2.858   3.675 -22.744  0.00  0.00    +0.174 A 
ENDROOT
BRANCH   1  21
ATOM     20  C   UNL     1      -3.097   3.713 -19.345  0.00  0.00    +0.277 C 
ATOM     21  O   UNL     1      -2.651   3.725 -20.537  0.00  0.00    -0.491 OA
ENDBRANCH   1  21
BRANCH  19  22
ATOM     22  O   UNL     1      -1.362   3.678 -23.076  0.00  0.00    -0.452 OA
BRANCH  22  23
ATOM     23  C   UNL     1      -0.316   2.854 -22.683  0.00  0.00    +0.129 A 
ATOM     24  C   UNL     1       0.870   3.250 -22.973  0.00  0.00    +0.046 A 
ATOM     25  C   UNL     1       1.882   2.535 -22.638  0.00  0.00    +0.004 A 
ATOM     26  C   UNL     1       1.710   1.430 -22.016  0.00  0.00    +0.000 A 
ATOM     27  C   UNL     1       0.523   1.032 -21.725  0.00  0.00    +0.004 A 
ATOM     28  C   UNL     1      -0.489   1.745 -22.059  0.00  0.00    +0.046 A 
ENDBRANCH  22  23
ENDBRANCH  19  22
TORSDOF 3
ENDMDL
