MODEL 1
REMARK VINA RESULT:    -9.857      0.000      0.000
REMARK INTER + INTRA:          -7.134
REMARK INTER:                 -10.392
REMARK INTRA:                   3.258
REMARK UNBOUND:                 3.299
REMARK  Name = CC(=O)O[C@H]1c2occ(C)c2[C@H]2C=C(CC[C@H]3O[C@]31C)C(=O)O2            ZINC000106803372
REMARK  5 active torsions:
REMARK  status: ('A' for Active; 'I' for Inactive)
REMARK    1  A    between atoms: C_1  and  C_2
REMARK    2  A    between atoms: C_2  and  O_4
REMARK    3  A    between atoms: O_4  and  C_5
REMARK    4  A    between atoms: C_9  and  C_10
REMARK    5  A    between atoms: C_19  and  C_20
REMARK                            x       y       z     vdW  Elec       q    Type
REMARK                         _______ _______ _______ _____ _____    ______ ____
ROOT
ATOM      1  C   UNL     1      -3.441   3.226 -23.098  0.00  0.00    +0.276 C 
ATOM      2  C   UNL     1      -2.130   2.969 -22.834  0.00  0.00    +0.155 A 
ATOM      3  O   UNL     1      -1.401   2.742 -21.804  0.00  0.00    -0.463 OA
ATOM      4  C   UNL     1      -0.198   2.567 -22.208  0.00  0.00    +0.199 A 
ATOM      5  C   UNL     1      -0.183   2.685 -23.483  0.00  0.00    -0.005 A 
ATOM      6  C   UNL     1       0.840   2.575 -24.246  0.00  0.00    +0.047 C 
ATOM      7  C   UNL     1      -1.380   2.933 -23.866  0.00  0.00    +0.044 A 
ATOM      8  C   UNL     1      -1.931   3.135 -24.967  0.00  0.00    +0.234 C 
ATOM      9  C   UNL     1      -3.170   3.332 -24.727  0.00  0.00    +0.032 C 
ATOM     10  C   UNL     1      -3.762   3.542 -25.837  0.00  0.00    +0.037 C 
ATOM     11  C   UNL     1      -2.886   3.476 -26.778  0.00  0.00    +0.336 C 
ATOM     12  O   UNL     1      -3.108   3.634 -28.028  0.00  0.00    -0.245 OA
ATOM     13  C   UNL     1      -4.981   3.748 -25.720  0.00  0.00    +0.045 C 
ATOM     14  C   UNL     1      -5.745   3.766 -24.479  0.00  0.00    +0.039 C 
ATOM     15  C   UNL     1      -5.553   3.589 -22.973  0.00  0.00    +0.155 C 
ATOM     16  O   UNL     1      -5.633   3.482 -21.699  0.00  0.00    -0.361 OA
ATOM     17  O   UNL     1      -1.753   3.224 -26.236  0.00  0.00    -0.449 OA
ATOM     18  C   UNL     1      -4.501   3.337 -22.282  0.00  0.00    +0.137 C 
ATOM     19  C   UNL     1      -4.145   3.193 -21.424  0.00  0.00    +0.048 C 
ENDROOT
BRANCH   1  20
ATOM     20  O   UNL     1      -2.931   2.998 -21.644  0.00  0.00    -0.451 OA
BRANCH  20  22
ATOM     21  C   UNL     1      -3.085   3.720 -19.507  0.00  0.00    +0.136 C 
ATOM     22  C   UNL     1      -2.734   3.950 -20.734  0.00  0.00    +0.305 C 
ATOM     23  O   UNL     1      -2.211   5.083 -21.034  0.00  0.00    -0.251 OA
ENDBRANCH  20  22
ENDBRANCH   1  20
TORSDOF 2
ENDMDL
MODEL 2
REMARK VINA RESULT:    -9.463      1.430      4.164
REMARK INTER + INTRA:          -6.717
REMARK INTER:                  -9.966
REMARK INTRA:                   3.249
REMARK UNBOUND:                 3.299
REMARK  Name = CC(=O)O[C@H]1c2occ(C)c2[C@H]2C=C(CC[C@H]3O[C@]31C)C(=O)O2            ZINC000106803372
REMARK  5 active torsions:
REMARK  status: ('A' for Active; 'I' for Inactive)
REMARK    1  A    between atoms: C_1  and  C_2
REMARK    2  A    between atoms: C_2  and  O_4
REMARK    3  A    between atoms: O_4  and  C_5
REMARK    4  A    between atoms: C_9  and  C_10
REMARK    5  A    between atoms: C_19  and  C_20
REMARK                            x       y       z     vdW  Elec       q    Type
REMARK                         _______ _______ _______ _____ _____    ______ ____
ROOT
ATOM      1  C   UNL     1      -2.044   3.102 -24.209  0.00  0.00    +0.276 C 
ATOM      2  C   UNL     1      -0.955   2.627 -23.545  0.00  0.00    +0.155 A 
ATOM      3  O   UNL     1       0.286   2.419 -23.792  0.00  0.00    -0.463 OA
ATOM      4  C   UNL     1       0.821   1.941 -22.731  0.00  0.00    +0.199 A 
ATOM      5  C   UNL     1      -0.085   1.854 -21.830  0.00  0.00    -0.005 A 
ATOM      6  C   UNL     1       0.068   1.420 -20.634  0.00  0.00    +0.047 C 
ATOM      7  C   UNL     1      -1.182   2.278 -22.337  0.00  0.00    +0.044 A 
ATOM      8  C   UNL     1      -2.352   2.415 -21.925  0.00  0.00    +0.234 C 
ATOM      9  C   UNL     1      -3.030   2.896 -22.896  0.00  0.00    +0.032 C 
ATOM     10  C   UNL     1      -4.233   3.046 -22.503  0.00  0.00    +0.037 C 
ATOM     11  C   UNL     1      -4.309   2.657 -21.279  0.00  0.00    +0.336 C 
ATOM     12  O   UNL     1      -5.360   2.660 -20.549  0.00  0.00    -0.245 OA
ATOM     13  C   UNL     1      -4.986   3.512 -23.374  0.00  0.00    +0.045 C 
ATOM     14  C   UNL     1      -4.618   3.878 -24.736  0.00  0.00    +0.039 C 
ATOM     15  C   UNL     1      -3.403   3.903 -25.664  0.00  0.00    +0.155 C 
ATOM     16  O   UNL     1      -2.543   4.016 -26.606  0.00  0.00    -0.361 OA
ATOM     17  O   UNL     1      -3.142   2.266 -20.924  0.00  0.00    -0.449 OA
ATOM     18  C   UNL     1      -2.185   3.553 -25.465  0.00  0.00    +0.137 C 
ATOM     19  C   UNL     1      -1.324   3.474 -25.834  0.00  0.00    +0.048 C 
ENDROOT
BRANCH   1  20
ATOM     20  O   UNL     1      -0.649   3.004 -24.894  0.00  0.00    -0.451 OA
BRANCH  20  22
ATOM     21  C   UNL     1       1.186   3.908 -25.858  0.00  0.00    +0.136 C 
ATOM     22  C   UNL     1       0.251   3.985 -24.964  0.00  0.00    +0.305 C 
ATOM     23  O   UNL     1       0.218   4.997 -24.176  0.00  0.00    -0.251 OA
ENDBRANCH  20  22
ENDBRANCH   1  20
TORSDOF 2
ENDMDL
MODEL 3
REMARK VINA RESULT:    -9.288      1.535      4.538
REMARK INTER + INTRA:          -6.532
REMARK INTER:                  -9.727
REMARK INTRA:                   3.195
REMARK UNBOUND:                 3.299
REMARK  Name = CC(=O)O[C@H]1c2occ(C)c2[C@H]2C=C(CC[C@H]3O[C@]31C)C(=O)O2            ZINC000106803372
REMARK  5 active torsions:
REMARK  status: ('A' for Active; 'I' for Inactive)
REMARK    1  A    between atoms: C_1  and  C_2
REMARK    2  A    between atoms: C_2  and  O_4
REMARK    3  A    between atoms: O_4  and  C_5
REMARK    4  A    between atoms: C_9  and  C_10
REMARK    5  A    between atoms: C_19  and  C_20
REMARK                            x       y       z     vdW  Elec       q    Type
REMARK                         _______ _______ _______ _____ _____    ______ ____
ROOT
ATOM      1  C   UNL     1      -1.707   2.901 -23.287  0.00  0.00    +0.276 C 
ATOM      2  C   UNL     1      -1.891   3.163 -24.611  0.00  0.00    +0.155 A 
ATOM      3  O   UNL     1      -1.170   3.237 -25.668  0.00  0.00    -0.463 OA
ATOM      4  C   UNL     1      -1.942   3.531 -26.647  0.00  0.00    +0.199 A 
ATOM      5  C   UNL     1      -3.135   3.640 -26.197  0.00  0.00    -0.005 A 
ATOM      6  C   UNL     1      -4.183   3.925 -26.877  0.00  0.00    +0.047 C 
ATOM      7  C   UNL     1      -3.100   3.411 -24.938  0.00  0.00    +0.044 A 
ATOM      8  C   UNL     1      -3.945   3.383 -24.020  0.00  0.00    +0.234 C 
ATOM      9  C   UNL     1      -3.314   3.094 -22.948  0.00  0.00    +0.032 C 
ATOM     10  C   UNL     1      -4.155   3.057 -21.990  0.00  0.00    +0.037 C 
ATOM     11  C   UNL     1      -5.320   3.325 -22.467  0.00  0.00    +0.336 C 
ATOM     12  O   UNL     1      -6.413   3.380 -21.804  0.00  0.00    -0.245 OA
ATOM     13  C   UNL     1      -3.646   2.783 -20.891  0.00  0.00    +0.045 C 
ATOM     14  C   UNL     1      -2.238   2.515 -20.628  0.00  0.00    +0.039 C 
ATOM     15  C   UNL     1      -0.896   2.432 -21.356  0.00  0.00    +0.155 C 
ATOM     16  O   UNL     1       0.318   2.309 -21.745  0.00  0.00    -0.361 OA
ATOM     17  O   UNL     1      -5.187   3.526 -23.725  0.00  0.00    -0.449 OA
ATOM     18  C   UNL     1      -0.598   2.603 -22.592  0.00  0.00    +0.137 C 
ATOM     19  C   UNL     1       0.085   2.610 -23.238  0.00  0.00    +0.048 C 
ENDROOT
BRANCH   1  20
ATOM     20  O   UNL     1      -0.519   2.891 -24.295  0.00  0.00    -0.451 OA
BRANCH  20  22
ATOM     21  C   UNL     1       1.489   3.611 -25.046  0.00  0.00    +0.136 C 
ATOM     22  C   UNL     1       0.363   3.876 -24.462  0.00  0.00    +0.305 C 
ATOM     23  O   UNL     1       0.130   5.074 -24.065  0.00  0.00    -0.251 OA
ENDBRANCH  20  22
ENDBRANCH   1  20
TORSDOF 2
ENDMDL
MODEL 4
REMARK VINA RESULT:    -9.023      1.334      2.265
REMARK INTER + INTRA:          -6.251
REMARK INTER:                  -9.595
REMARK INTRA:                   3.344
REMARK UNBOUND:                 3.299
REMARK  Name = CC(=O)O[C@H]1c2occ(C)c2[C@H]2C=C(CC[C@H]3O[C@]31C)C(=O)O2            ZINC000106803372
REMARK  5 active torsions:
REMARK  status: ('A' for Active; 'I' for Inactive)
REMARK    1  A    between atoms: C_1  and  C_2
REMARK    2  A    between atoms: C_2  and  O_4
REMARK    3  A    between atoms: O_4  and  C_5
REMARK    4  A    between atoms: C_9  and  C_10
REMARK    5  A    between atoms: C_19  and  C_20
REMARK                            x       y       z     vdW  Elec       q    Type
REMARK                         _______ _______ _______ _____ _____    ______ ____
ROOT
ATOM      1  C   UNL     1      -2.121   3.208 -22.592  0.00  0.00    +0.276 C 
ATOM      2  C   UNL     1      -0.853   3.238 -23.086  0.00  0.00    +0.155 A 
ATOM      3  O   UNL     1       0.337   3.064 -22.644  0.00  0.00    -0.463 OA
ATOM      4  C   UNL     1       1.147   3.232 -23.622  0.00  0.00    +0.199 A 
ATOM      5  C   UNL     1       0.460   3.510 -24.666  0.00  0.00    -0.005 A 
ATOM      6  C   UNL     1       0.918   3.744 -25.840  0.00  0.00    +0.047 C 
ATOM      7  C   UNL     1      -0.776   3.513 -24.331  0.00  0.00    +0.044 A 
ATOM      8  C   UNL     1      -1.853   3.715 -24.927  0.00  0.00    +0.234 C 
ATOM      9  C   UNL     1      -2.784   3.580 -24.062  0.00  0.00    +0.032 C 
ATOM     10  C   UNL     1      -3.900   3.781 -24.645  0.00  0.00    +0.037 C 
ATOM     11  C   UNL     1      -3.666   4.044 -25.883  0.00  0.00    +0.336 C 
ATOM     12  O   UNL     1      -4.543   4.301 -26.779  0.00  0.00    -0.245 OA
ATOM     13  C   UNL     1      -4.881   3.674 -23.891  0.00  0.00    +0.045 C 
ATOM     14  C   UNL     1      -4.854   3.353 -22.469  0.00  0.00    +0.039 C 
ATOM     15  C   UNL     1      -3.863   3.039 -21.349  0.00  0.00    +0.155 C 
ATOM     16  O   UNL     1      -3.232   2.757 -20.271  0.00  0.00    -0.361 OA
ATOM     17  O   UNL     1      -2.398   4.003 -26.055  0.00  0.00    -0.449 OA
ATOM     18  C   UNL     1      -2.582   2.959 -21.357  0.00  0.00    +0.137 C 
ATOM     19  C   UNL     1      -1.806   2.797 -20.852  0.00  0.00    +0.048 C 
ENDROOT
BRANCH   1  20
ATOM     20  O   UNL     1      -0.886   2.926 -21.687  0.00  0.00    -0.451 OA
BRANCH  20  22
ATOM     21  C   UNL     1       0.464   1.593 -20.456  0.00  0.00    +0.136 C 
ATOM     22  C   UNL     1      -0.354   1.727 -21.452  0.00  0.00    +0.305 C 
ATOM     23  O   UNL     1      -0.628   0.706 -22.180  0.00  0.00    -0.251 OA
ENDBRANCH  20  22
ENDBRANCH   1  20
TORSDOF 2
ENDMDL
MODEL 5
REMARK VINA RESULT:    -8.963      1.683      5.541
REMARK INTER + INTRA:          -6.189
REMARK INTER:                  -9.460
REMARK INTRA:                   3.272
REMARK UNBOUND:                 3.299
REMARK  Name = CC(=O)O[C@H]1c2occ(C)c2[C@H]2C=C(CC[C@H]3O[C@]31C)C(=O)O2            ZINC000106803372
REMARK  5 active torsions:
REMARK  status: ('A' for Active; 'I' for Inactive)
REMARK    1  A    between atoms: C_1  and  C_2
REMARK    2  A    between atoms: C_2  and  O_4
REMARK    3  A    between atoms: O_4  and  C_5
REMARK    4  A    between atoms: C_9  and  C_10
REMARK    5  A    between atoms: C_19  and  C_20
REMARK                            x       y       z     vdW  Elec       q    Type
REMARK                         _______ _______ _______ _____ _____    ______ ____
ROOT
ATOM      1  C   UNL     1      -0.831   3.190 -23.870  0.00  0.00    +0.276 C 
ATOM      2  C   UNL     1      -2.060   3.236 -23.286  0.00  0.00    +0.155 A 
ATOM      3  O   UNL     1      -3.241   3.624 -23.600  0.00  0.00    -0.463 OA
ATOM      4  C   UNL     1      -4.005   3.401 -22.597  0.00  0.00    +0.199 A 
ATOM      5  C   UNL     1      -3.300   2.876 -21.666  0.00  0.00    -0.005 A 
ATOM      6  C   UNL     1      -3.713   2.514 -20.508  0.00  0.00    +0.047 C 
ATOM      7  C   UNL     1      -2.098   2.776 -22.096  0.00  0.00    +0.044 A 
ATOM      8  C   UNL     1      -1.023   2.350 -21.626  0.00  0.00    +0.234 C 
ATOM      9  C   UNL     1      -0.137   2.508 -22.532  0.00  0.00    +0.032 C 
ATOM     10  C   UNL     1       0.976   2.081 -22.079  0.00  0.00    +0.037 C 
ATOM     11  C   UNL     1       0.784   1.652 -20.881  0.00  0.00    +0.336 C 
ATOM     12  O   UNL     1       1.671   1.149 -20.107  0.00  0.00    -0.245 OA
ATOM     13  C   UNL     1       1.915   2.187 -22.884  0.00  0.00    +0.045 C 
ATOM     14  C   UNL     1       1.846   2.733 -24.234  0.00  0.00    +0.039 C 
ATOM     15  C   UNL     1       0.839   3.343 -25.210  0.00  0.00    +0.155 C 
ATOM     16  O   UNL     1       0.189   3.870 -26.178  0.00  0.00    -0.361 OA
ATOM     17  O   UNL     1      -0.455   1.821 -20.603  0.00  0.00    -0.449 OA
ATOM     18  C   UNL     1      -0.416   3.576 -25.087  0.00  0.00    +0.137 C 
ATOM     19  C   UNL     1      -1.193   3.912 -25.497  0.00  0.00    +0.048 C 
ENDROOT
BRANCH   1  20
ATOM     20  O   UNL     1      -2.070   3.763 -24.620  0.00  0.00    -0.451 OA
BRANCH  20  22
ATOM     21  C   UNL     1      -3.326   3.730 -26.500  0.00  0.00    +0.136 C 
ATOM     22  C   UNL     1      -2.829   3.093 -25.486  0.00  0.00    +0.305 C 
ATOM     23  O   UNL     1      -3.082   1.843 -25.347  0.00  0.00    -0.251 OA
ENDBRANCH  20  22
ENDBRANCH   1  20
TORSDOF 2
ENDMDL
MODEL 6
REMARK VINA RESULT:    -8.941      1.461      3.953
REMARK INTER + INTRA:          -6.165
REMARK INTER:                  -9.457
REMARK INTRA:                   3.292
REMARK UNBOUND:                 3.299
REMARK  Name = CC(=O)O[C@H]1c2occ(C)c2[C@H]2C=C(CC[C@H]3O[C@]31C)C(=O)O2            ZINC000106803372
REMARK  5 active torsions:
REMARK  status: ('A' for Active; 'I' for Inactive)
REMARK    1  A    between atoms: C_1  and  C_2
REMARK    2  A    between atoms: C_2  and  O_4
REMARK    3  A    between atoms: O_4  and  C_5
REMARK    4  A    between atoms: C_9  and  C_10
REMARK    5  A    between atoms: C_19  and  C_20
REMARK                            x       y       z     vdW  Elec       q    Type
REMARK                         _______ _______ _______ _____ _____    ______ ____
ROOT
ATOM      1  C   UNL     1      -1.293   2.459 -22.640  0.00  0.00    +0.276 C 
ATOM      2  C   UNL     1      -2.502   2.899 -23.086  0.00  0.00    +0.155 A 
ATOM      3  O   UNL     1      -3.725   2.844 -22.707  0.00  0.00    -0.463 OA
ATOM      4  C   UNL     1      -4.432   3.466 -23.576  0.00  0.00    +0.199 A 
ATOM      5  C   UNL     1      -3.648   3.905 -24.489  0.00  0.00    -0.005 A 
ATOM      6  C   UNL     1      -3.987   4.577 -25.526  0.00  0.00    +0.047 C 
ATOM      7  C   UNL     1      -2.456   3.552 -24.182  0.00  0.00    +0.044 A 
ATOM      8  C   UNL     1      -1.329   3.703 -24.697  0.00  0.00    +0.234 C 
ATOM      9  C   UNL     1      -0.492   3.121 -23.927  0.00  0.00    +0.032 C 
ATOM     10  C   UNL     1       0.672   3.259 -24.429  0.00  0.00    +0.037 C 
ATOM     11  C   UNL     1       0.562   3.932 -25.521  0.00  0.00    +0.336 C 
ATOM     12  O   UNL     1       1.519   4.267 -26.302  0.00  0.00    -0.245 OA
ATOM     13  C   UNL     1       1.570   2.728 -23.757  0.00  0.00    +0.045 C 
ATOM     14  C   UNL     1       1.404   1.998 -22.506  0.00  0.00    +0.039 C 
ATOM     15  C   UNL     1       0.311   1.564 -21.529  0.00  0.00    +0.155 C 
ATOM     16  O   UNL     1      -0.420   1.100 -20.586  0.00  0.00    -0.361 OA
ATOM     17  O   UNL     1      -0.679   4.205 -25.684  0.00  0.00    -0.449 OA
ATOM     18  C   UNL     1      -0.958   1.755 -21.548  0.00  0.00    +0.137 C 
ATOM     19  C   UNL     1      -1.776   1.607 -21.110  0.00  0.00    +0.048 C 
ENDROOT
BRANCH   1  20
ATOM     20  O   UNL     1      -2.607   2.172 -21.854  0.00  0.00    -0.451 OA
BRANCH  20  22
ATOM     21  C   UNL     1      -4.027   2.421 -20.112  0.00  0.00    +0.136 C 
ATOM     22  C   UNL     1      -3.099   2.920 -20.867  0.00  0.00    +0.305 C 
ATOM     23  O   UNL     1      -2.682   4.112 -20.643  0.00  0.00    -0.251 OA
ENDBRANCH  20  22
ENDBRANCH   1  20
TORSDOF 2
ENDMDL
MODEL 7
REMARK VINA RESULT:    -8.573      1.484      3.965
REMARK INTER + INTRA:          -5.776
REMARK INTER:                  -8.997
REMARK INTRA:                   3.221
REMARK UNBOUND:                 3.299
REMARK  Name = CC(=O)O[C@H]1c2occ(C)c2[C@H]2C=C(CC[C@H]3O[C@]31C)C(=O)O2            ZINC000106803372
REMARK  5 active torsions:
REMARK  status: ('A' for Active; 'I' for Inactive)
REMARK    1  A    between atoms: C_1  and  C_2
REMARK    2  A    between atoms: C_2  and  O_4
REMARK    3  A    between atoms: O_4  and  C_5
REMARK    4  A    between atoms: C_9  and  C_10
REMARK    5  A    between atoms: C_19  and  C_20
REMARK                            x       y       z     vdW  Elec       q    Type
REMARK                         _______ _______ _______ _____ _____    ______ ____
ROOT
ATOM      1  C   UNL     1      -0.995   3.064 -23.233  0.00  0.00    +0.276 C 
ATOM      2  C   UNL     1      -1.924   2.908 -22.250  0.00  0.00    +0.155 A 
ATOM      3  O   UNL     1      -1.937   2.643 -20.996  0.00  0.00    -0.463 OA
ATOM      4  C   UNL     1      -3.159   2.630 -20.612  0.00  0.00    +0.199 A 
ATOM      5  C   UNL     1      -3.899   2.885 -21.624  0.00  0.00    -0.005 A 
ATOM      6  C   UNL     1      -5.178   2.958 -21.634  0.00  0.00    +0.047 C 
ATOM      7  C   UNL     1      -3.132   3.056 -22.636  0.00  0.00    +0.044 A 
ATOM      8  C   UNL     1      -3.306   3.321 -23.842  0.00  0.00    +0.234 C 
ATOM      9  C   UNL     1      -2.148   3.370 -24.379  0.00  0.00    +0.032 C 
ATOM     10  C   UNL     1      -2.295   3.640 -25.617  0.00  0.00    +0.037 C 
ATOM     11  C   UNL     1      -3.553   3.760 -25.856  0.00  0.00    +0.336 C 
ATOM     12  O   UNL     1      -4.085   4.029 -26.989  0.00  0.00    -0.245 OA
ATOM     13  C   UNL     1      -1.223   3.713 -26.240  0.00  0.00    +0.045 C 
ATOM     14  C   UNL     1       0.115   3.524 -25.695  0.00  0.00    +0.039 C 
ATOM     15  C   UNL     1       0.817   3.206 -24.375  0.00  0.00    +0.155 C 
ATOM     16  O   UNL     1       1.611   2.956 -23.401  0.00  0.00    -0.361 OA
ATOM     17  O   UNL     1      -4.177   3.562 -24.755  0.00  0.00    -0.449 OA
ATOM     18  C   UNL     1       0.345   2.984 -23.203  0.00  0.00    +0.137 C 
ATOM     19  C   UNL     1       0.542   2.783 -22.306  0.00  0.00    +0.048 C 
ENDROOT
BRANCH   1  20
ATOM     20  O   UNL     1      -0.585   2.732 -21.767  0.00  0.00    -0.451 OA
BRANCH  20  22
ATOM     21  C   UNL     1       0.730   1.535 -20.371  0.00  0.00    +0.136 C 
ATOM     22  C   UNL     1      -0.133   1.554 -21.337  0.00  0.00    +0.305 C 
ATOM     23  O   UNL     1      -0.526   0.445 -21.850  0.00  0.00    -0.251 OA
ENDBRANCH  20  22
ENDBRANCH   1  20
TORSDOF 2
ENDMDL
MODEL 8
REMARK VINA RESULT:    -8.191      1.621      4.427
REMARK INTER + INTRA:          -5.372
REMARK INTER:                  -8.713
REMARK INTRA:                   3.341
REMARK UNBOUND:                 3.299
REMARK  Name = CC(=O)O[C@H]1c2occ(C)c2[C@H]2C=C(CC[C@H]3O[C@]31C)C(=O)O2            ZINC000106803372
REMARK  5 active torsions:
REMARK  status: ('A' for Active; 'I' for Inactive)
REMARK    1  A    between atoms: C_1  and  C_2
REMARK    2  A    between atoms: C_2  and  O_4
REMARK    3  A    between atoms: O_4  and  C_5
REMARK    4  A    between atoms: C_9  and  C_10
REMARK    5  A    between atoms: C_19  and  C_20
REMARK                            x       y       z     vdW  Elec       q    Type
REMARK                         _______ _______ _______ _____ _____    ______ ____
ROOT
ATOM      1  C   UNL     1      -2.124   3.309 -23.473  0.00  0.00    +0.276 C 
ATOM      2  C   UNL     1      -1.190   3.449 -24.454  0.00  0.00    +0.155 A 
ATOM      3  O   UNL     1      -1.139   3.902 -25.652  0.00  0.00    -0.463 OA
ATOM      4  C   UNL     1       0.062   3.756 -26.074  0.00  0.00    +0.199 A 
ATOM      5  C   UNL     1       0.751   3.216 -25.141  0.00  0.00    -0.005 A 
ATOM      6  C   UNL     1       1.996   2.914 -25.189  0.00  0.00    +0.047 C 
ATOM      7  C   UNL     1      -0.026   3.028 -24.140  0.00  0.00    +0.044 A 
ATOM      8  C   UNL     1       0.107   2.549 -22.996  0.00  0.00    +0.234 C 
ATOM      9  C   UNL     1      -1.037   2.624 -22.431  0.00  0.00    +0.032 C 
ATOM     10  C   UNL     1      -0.932   2.141 -21.255  0.00  0.00    +0.037 C 
ATOM     11  C   UNL     1       0.286   1.761 -21.084  0.00  0.00    +0.336 C 
ATOM     12  O   UNL     1       0.768   1.226 -20.026  0.00  0.00    -0.245 OA
ATOM     13  C   UNL     1      -1.993   2.165 -20.611  0.00  0.00    +0.045 C 
ATOM     14  C   UNL     1      -3.279   2.675 -21.072  0.00  0.00    +0.039 C 
ATOM     15  C   UNL     1      -3.922   3.317 -22.301  0.00  0.00    +0.155 C 
ATOM     16  O   UNL     1      -4.664   3.856 -23.195  0.00  0.00    -0.361 OA
ATOM     17  O   UNL     1       0.927   2.015 -22.163  0.00  0.00    -0.449 OA
ATOM     18  C   UNL     1      -3.426   3.633 -23.442  0.00  0.00    +0.137 C 
ATOM     19  C   UNL     1      -3.590   4.004 -24.289  0.00  0.00    +0.048 C 
ENDROOT
BRANCH   1  20
ATOM     20  O   UNL     1      -2.478   3.937 -24.854  0.00  0.00    -0.451 OA
BRANCH  20  22
ATOM     21  C   UNL     1      -3.679   4.076 -26.765  0.00  0.00    +0.136 C 
ATOM     22  C   UNL     1      -3.185   3.345 -25.816  0.00  0.00    +0.305 C 
ATOM     23  O   UNL     1      -3.390   2.078 -25.830  0.00  0.00    -0.251 OA
ENDBRANCH  20  22
ENDBRANCH   1  20
TORSDOF 2
ENDMDL
MODEL 9
REMARK VINA RESULT:    -7.827      2.955      6.186
REMARK INTER + INTRA:          -4.985
REMARK INTER:                  -8.284
REMARK INTRA:                   3.299
REMARK UNBOUND:                 3.299
REMARK  Name = CC(=O)O[C@H]1c2occ(C)c2[C@H]2C=C(CC[C@H]3O[C@]31C)C(=O)O2            ZINC000106803372
REMARK  5 active torsions:
REMARK  status: ('A' for Active; 'I' for Inactive)
REMARK    1  A    between atoms: C_1  and  C_2
REMARK    2  A    between atoms: C_2  and  O_4
REMARK    3  A    between atoms: O_4  and  C_5
REMARK    4  A    between atoms: C_9  and  C_10
REMARK    5  A    between atoms: C_19  and  C_20
REMARK                            x       y       z     vdW  Elec       q    Type
REMARK                         _______ _______ _______ _____ _____    ______ ____
ROOT
ATOM      1  C   UNL     1       1.858   2.521 -22.517  0.00  0.00    +0.276 C 
ATOM      2  C   UNL     1       1.598   3.060 -23.741  0.00  0.00    +0.155 A 
ATOM      3  O   UNL     1       2.267   3.541 -24.722  0.00  0.00    -0.463 OA
ATOM      4  C   UNL     1       1.433   3.903 -25.624  0.00  0.00    +0.199 A 
ATOM      5  C   UNL     1       0.252   3.646 -25.202  0.00  0.00    -0.005 A 
ATOM      6  C   UNL     1      -0.845   3.867 -25.826  0.00  0.00    +0.047 C 
ATOM      7  C   UNL     1       0.358   3.125 -24.037  0.00  0.00    +0.044 A 
ATOM      8  C   UNL     1      -0.445   2.694 -23.185  0.00  0.00    +0.234 C 
ATOM      9  C   UNL     1       0.252   2.285 -22.195  0.00  0.00    +0.032 C 
ATOM     10  C   UNL     1      -0.544   1.838 -21.305  0.00  0.00    +0.037 C 
ATOM     11  C   UNL     1      -1.748   1.968 -21.741  0.00  0.00    +0.336 C 
ATOM     12  O   UNL     1      -2.816   1.629 -21.123  0.00  0.00    -0.245 OA
ATOM     13  C   UNL     1       0.032   1.412 -20.291  0.00  0.00    +0.045 C 
ATOM     14  C   UNL     1       1.470   1.385 -20.055  0.00  0.00    +0.039 C 
ATOM     15  C   UNL     1       2.785   1.766 -20.735  0.00  0.00    +0.155 C 
ATOM     16  O   UNL     1       3.990   1.998 -21.100  0.00  0.00    -0.361 OA
ATOM     17  O   UNL     1      -1.684   2.499 -22.905  0.00  0.00    -0.449 OA
ATOM     18  C   UNL     1       3.018   2.297 -21.880  0.00  0.00    +0.137 C 
ATOM     19  C   UNL     1       3.672   2.605 -22.480  0.00  0.00    +0.048 C 
ENDROOT
BRANCH   1  20
ATOM     20  O   UNL     1       3.002   3.009 -23.455  0.00  0.00    -0.451 OA
BRANCH  20  22
ATOM     21  C   UNL     1       5.013   4.040 -23.542  0.00  0.00    +0.136 C 
ATOM     22  C   UNL     1       3.748   4.097 -23.266  0.00  0.00    +0.305 C 
ATOM     23  O   UNL     1       3.253   5.193 -22.820  0.00  0.00    -0.251 OA
ENDBRANCH  20  22
ENDBRANCH   1  20
TORSDOF 2
ENDMDL
