MODEL 1
REMARK VINA RESULT:    -9.949      0.000      0.000
REMARK INTER + INTRA:         -11.243
REMARK INTER:                 -11.114
REMARK INTRA:                  -0.128
REMARK UNBOUND:                -0.131
REMARK  Name = COc1ccc2c(c1O)[C@@]13CCN(C)[C@H](C2)[C@H]1C(Br)=CC=C3C               ZINC000100393694
REMARK  5 active torsions:
REMARK  status: ('A' for Active; 'I' for Inactive)
REMARK    1  A    between atoms: C_1  and  O_2
REMARK    2  A    between atoms: O_2  and  C_3
REMARK    3  A    between atoms: C_8  and  O_9
REMARK    4  A    between atoms: N_13  and  C_14
REMARK    5  A    between atoms: C_22  and  C_23
REMARK                            x       y       z     vdW  Elec       q    Type
REMARK                         _______ _______ _______ _____ _____    ______ ____
ROOT
ATOM      1  C   UNL     1      -4.916   3.406 -22.900  0.00  0.00    +0.162 A 
ATOM      2  C   UNL     1      -5.207   3.750 -24.088  0.00  0.00    +0.049 A 
ATOM      3  C   UNL     1      -4.274   3.790 -24.952  0.00  0.00    +0.008 A 
ATOM      4  C   UNL     1      -2.897   3.439 -24.546  0.00  0.00    -0.034 A 
ATOM      5  C   UNL     1      -2.735   3.159 -23.525  0.00  0.00    +0.012 A 
ATOM      6  C   UNL     1      -1.937   2.898 -23.057  0.00  0.00    +0.038 C 
ATOM      7  C   UNL     1      -3.445   3.332 -23.699  0.00  0.00    +0.067 C 
ATOM      8  C   UNL     1      -3.545   3.700 -25.129  0.00  0.00    +0.132 C 
ATOM      9  N   UNL     1      -2.575   3.686 -25.799  0.00  0.00    +0.236 N 
ATOM     10  H   UNL     1      -1.608   3.584 -26.106  0.00  0.00    +0.203 HD
ATOM     11  C   UNL     1      -1.144   3.283 -25.221  0.00  0.00    +0.078 C 
ATOM     12  C   UNL     1      -3.313   4.075 -26.835  0.00  0.00    +0.190 C 
ATOM     13  C   UNL     1      -1.732   2.566 -21.852  0.00  0.00    -0.061 C 
ATOM     14  C   UNL     1      -2.650   2.526 -21.002  0.00  0.00    +0.040 C 
ATOM     15  C   UNL     1      -0.527   2.250 -21.463  0.00  0.00    +0.001 C 
ATOM     16  C   UNL     1       0.487   2.272 -22.311  0.00  0.00    +0.011 C 
ATOM     17  C   UNL     1       0.321   2.607 -23.558  0.00  0.00    +0.005 C 
ATOM     18 BR   UNL     1       1.318   2.625 -24.377  0.00  0.00    -0.054 Br
ATOM     19  C   UNL     1      -0.832   2.920 -23.973  0.00  0.00    +0.090 C 
ATOM     20  C   UNL     1      -1.970   3.481 -25.413  0.00  0.00    +0.090 C 
ATOM     21  C   UNL     1      -3.689   3.109 -22.605  0.00  0.00    +0.163 A 
ENDROOT
BRANCH   1  23
ATOM     22  C   UNL     1      -6.841   2.625 -21.750  0.00  0.00    +0.277 C 
ATOM     23  O   UNL     1      -5.762   3.295 -21.813  0.00  0.00    -0.491 OA
ENDBRANCH   1  23
BRANCH  21  24
ATOM     24  O   UNL     1      -3.425   2.767 -21.405  0.00  0.00    -0.503 OA
ATOM     25  H   UNL     1      -2.748   3.208 -20.929  0.00  0.00    +0.292 HD
ENDBRANCH  21  24
TORSDOF 2
ENDMDL
MODEL 2
REMARK VINA RESULT:    -9.874      2.211      4.079
REMARK INTER + INTRA:         -11.159
REMARK INTER:                 -11.013
REMARK INTRA:                  -0.146
REMARK UNBOUND:                -0.131
REMARK  Name = COc1ccc2c(c1O)[C@@]13CCN(C)[C@H](C2)[C@H]1C(Br)=CC=C3C               ZINC000100393694
REMARK  5 active torsions:
REMARK  status: ('A' for Active; 'I' for Inactive)
REMARK    1  A    between atoms: C_1  and  O_2
REMARK    2  A    between atoms: O_2  and  C_3
REMARK    3  A    between atoms: C_8  and  O_9
REMARK    4  A    between atoms: N_13  and  C_14
REMARK    5  A    between atoms: C_22  and  C_23
REMARK                            x       y       z     vdW  Elec       q    Type
REMARK                         _______ _______ _______ _____ _____    ______ ____
ROOT
ATOM      1  C   UNL     1       0.145   3.030 -24.301  0.00  0.00    +0.162 A 
ATOM      2  C   UNL     1      -0.208   3.321 -25.486  0.00  0.00    +0.049 A 
ATOM      3  C   UNL     1      -1.445   3.505 -25.721  0.00  0.00    +0.008 A 
ATOM      4  C   UNL     1      -2.418   3.375 -24.616  0.00  0.00    -0.034 A 
ATOM      5  C   UNL     1      -2.039   3.126 -23.646  0.00  0.00    +0.012 A 
ATOM      6  C   UNL     1      -2.484   2.995 -22.804  0.00  0.00    +0.038 C 
ATOM      7  C   UNL     1      -1.519   3.185 -24.185  0.00  0.00    +0.067 C 
ATOM      8  C   UNL     1      -2.159   3.530 -25.474  0.00  0.00    +0.132 C 
ATOM      9  N   UNL     1      -3.329   3.666 -25.521  0.00  0.00    +0.236 N 
ATOM     10  H   UNL     1      -4.312   3.716 -25.257  0.00  0.00    +0.203 HD
ATOM     11  C   UNL     1      -4.260   3.493 -24.238  0.00  0.00    +0.078 C 
ATOM     12  C   UNL     1      -3.223   3.932 -26.820  0.00  0.00    +0.190 C 
ATOM     13  C   UNL     1      -2.049   2.702 -21.651  0.00  0.00    -0.061 C 
ATOM     14  C   UNL     1      -0.832   2.521 -21.420  0.00  0.00    +0.040 C 
ATOM     15  C   UNL     1      -2.883   2.580 -20.655  0.00  0.00    +0.001 C 
ATOM     16  C   UNL     1      -4.181   2.758 -20.832  0.00  0.00    +0.011 C 
ATOM     17  C   UNL     1      -4.672   3.060 -21.999  0.00  0.00    +0.005 C 
ATOM     18 BR   UNL     1      -5.940   3.232 -22.160  0.00  0.00    -0.054 Br
ATOM     19  C   UNL     1      -3.895   3.187 -22.990  0.00  0.00    +0.090 C 
ATOM     20  C   UNL     1      -3.651   3.559 -24.856  0.00  0.00    +0.090 C 
ATOM     21  C   UNL     1      -0.755   2.930 -23.374  0.00  0.00    +0.163 A 
ENDROOT
BRANCH   1  23
ATOM     22  C   UNL     1       2.372   2.216 -24.445  0.00  0.00    +0.277 C 
ATOM     23  O   UNL     1       1.421   2.790 -23.826  0.00  0.00    -0.491 OA
ENDBRANCH   1  23
BRANCH  21  24
ATOM     24  O   UNL     1      -0.373   2.636 -22.193  0.00  0.00    -0.503 OA
ATOM     25  H   UNL     1      -0.994   2.613 -21.491  0.00  0.00    +0.292 HD
ENDBRANCH  21  24
TORSDOF 2
ENDMDL
MODEL 3
REMARK VINA RESULT:    -9.562      2.307      3.863
REMARK INTER + INTRA:         -10.811
REMARK INTER:                 -10.667
REMARK INTRA:                  -0.144
REMARK UNBOUND:                -0.131
REMARK  Name = COc1ccc2c(c1O)[C@@]13CCN(C)[C@H](C2)[C@H]1C(Br)=CC=C3C               ZINC000100393694
REMARK  5 active torsions:
REMARK  status: ('A' for Active; 'I' for Inactive)
REMARK    1  A    between atoms: C_1  and  O_2
REMARK    2  A    between atoms: O_2  and  C_3
REMARK    3  A    between atoms: C_8  and  O_9
REMARK    4  A    between atoms: N_13  and  C_14
REMARK    5  A    between atoms: C_22  and  C_23
REMARK                            x       y       z     vdW  Elec       q    Type
REMARK                         _______ _______ _______ _____ _____    ______ ____
ROOT
ATOM      1  C   UNL     1      -2.373   3.388 -25.100  0.00  0.00    +0.162 A 
ATOM      2  C   UNL     1      -3.317   3.261 -24.258  0.00  0.00    +0.049 A 
ATOM      3  C   UNL     1      -3.031   2.865 -23.084  0.00  0.00    +0.008 A 
ATOM      4  C   UNL     1      -1.624   2.570 -22.743  0.00  0.00    -0.034 A 
ATOM      5  C   UNL     1      -0.887   2.702 -23.509  0.00  0.00    +0.012 A 
ATOM      6  C   UNL     1       0.065   2.571 -23.505  0.00  0.00    +0.038 C 
ATOM      7  C   UNL     1      -1.593   2.861 -23.715  0.00  0.00    +0.067 C 
ATOM      8  C   UNL     1      -2.515   2.642 -22.579  0.00  0.00    +0.132 C 
ATOM      9  N   UNL     1      -2.084   2.269 -21.546  0.00  0.00    +0.236 N 
ATOM     10  H   UNL     1      -1.443   1.960 -20.816  0.00  0.00    +0.203 HD
ATOM     11  C   UNL     1      -0.530   1.989 -21.322  0.00  0.00    +0.078 C 
ATOM     12  C   UNL     1      -3.318   2.287 -21.051  0.00  0.00    +0.190 C 
ATOM     13  C   UNL     1       0.946   2.723 -24.403  0.00  0.00    -0.061 C 
ATOM     14  C   UNL     1       0.665   3.113 -25.559  0.00  0.00    +0.040 C 
ATOM     15  C   UNL     1       2.197   2.470 -24.133  0.00  0.00    +0.001 C 
ATOM     16  C   UNL     1       2.561   2.055 -22.931  0.00  0.00    +0.011 C 
ATOM     17  C   UNL     1       1.689   1.885 -21.979  0.00  0.00    +0.005 C 
ATOM     18 BR   UNL     1       2.056   1.480 -20.810  0.00  0.00    -0.054 Br
ATOM     19  C   UNL     1       0.466   2.120 -22.202  0.00  0.00    +0.090 C 
ATOM     20  C   UNL     1      -1.344   2.175 -21.568  0.00  0.00    +0.090 C 
ATOM     21  C   UNL     1      -1.158   3.113 -24.741  0.00  0.00    +0.163 A 
ENDROOT
BRANCH   1  23
ATOM     22  C   UNL     1      -3.321   3.443 -27.277  0.00  0.00    +0.277 C 
ATOM     23  O   UNL     1      -2.454   3.799 -26.418  0.00  0.00    -0.491 OA
ENDBRANCH   1  23
BRANCH  21  24
ATOM     24  O   UNL     1      -0.230   3.249 -25.606  0.00  0.00    -0.503 OA
ATOM     25  H   UNL     1      -0.446   3.416 -26.503  0.00  0.00    +0.292 HD
ENDBRANCH  21  24
TORSDOF 2
ENDMDL
MODEL 4
REMARK VINA RESULT:    -9.504      1.917      4.165
REMARK INTER + INTRA:         -10.746
REMARK INTER:                 -10.599
REMARK INTRA:                  -0.146
REMARK UNBOUND:                -0.131
REMARK  Name = COc1ccc2c(c1O)[C@@]13CCN(C)[C@H](C2)[C@H]1C(Br)=CC=C3C               ZINC000100393694
REMARK  5 active torsions:
REMARK  status: ('A' for Active; 'I' for Inactive)
REMARK    1  A    between atoms: C_1  and  O_2
REMARK    2  A    between atoms: O_2  and  C_3
REMARK    3  A    between atoms: C_8  and  O_9
REMARK    4  A    between atoms: N_13  and  C_14
REMARK    5  A    between atoms: C_22  and  C_23
REMARK                            x       y       z     vdW  Elec       q    Type
REMARK                         _______ _______ _______ _____ _____    ______ ____
ROOT
ATOM      1  C   UNL     1       0.241   1.966 -21.935  0.00  0.00    +0.162 A 
ATOM      2  C   UNL     1       1.044   2.203 -22.890  0.00  0.00    +0.049 A 
ATOM      3  C   UNL     1       0.588   2.760 -23.939  0.00  0.00    +0.008 A 
ATOM      4  C   UNL     1      -0.847   3.107 -24.009  0.00  0.00    -0.034 A 
ATOM      5  C   UNL     1      -1.457   2.873 -23.160  0.00  0.00    +0.012 A 
ATOM      6  C   UNL     1      -2.394   3.009 -22.995  0.00  0.00    +0.038 C 
ATOM      7  C   UNL     1      -0.733   2.684 -23.093  0.00  0.00    +0.067 C 
ATOM      8  C   UNL     1       0.005   3.054 -24.321  0.00  0.00    +0.132 C 
ATOM      9  N   UNL     1      -0.572   3.568 -25.211  0.00  0.00    +0.236 N 
ATOM     10  H   UNL     1      -1.311   3.979 -25.781  0.00  0.00    +0.203 HD
ATOM     11  C   UNL     1      -2.134   3.885 -25.145  0.00  0.00    +0.078 C 
ATOM     12  C   UNL     1       0.568   3.613 -25.895  0.00  0.00    +0.190 C 
ATOM     13  C   UNL     1      -3.128   2.738 -21.998  0.00  0.00    -0.061 C 
ATOM     14  C   UNL     1      -2.679   2.190 -20.965  0.00  0.00    +0.040 C 
ATOM     15  C   UNL     1      -4.398   3.032 -22.029  0.00  0.00    +0.001 C 
ATOM     16  C   UNL     1      -4.935   3.611 -23.089  0.00  0.00    +0.011 C 
ATOM     17  C   UNL     1      -4.219   3.907 -24.135  0.00  0.00    +0.005 C 
ATOM     18 BR   UNL     1      -4.753   4.472 -25.165  0.00  0.00    -0.054 Br
ATOM     19  C   UNL     1      -2.983   3.638 -24.144  0.00  0.00    +0.090 C 
ATOM     20  C   UNL     1      -1.296   3.662 -25.059  0.00  0.00    +0.090 C 
ATOM     21  C   UNL     1      -1.007   2.294 -22.054  0.00  0.00    +0.163 A 
ENDROOT
BRANCH   1  23
ATOM     22  C   UNL     1       1.598   1.462 -20.052  0.00  0.00    +0.277 C 
ATOM     23  O   UNL     1       0.517   1.375 -20.715  0.00  0.00    -0.491 OA
ENDBRANCH   1  23
BRANCH  21  24
ATOM     24  O   UNL     1      -1.792   2.044 -21.080  0.00  0.00    -0.503 OA
ATOM     25  H   UNL     1      -2.428   2.680 -20.815  0.00  0.00    +0.292 HD
ENDBRANCH  21  24
TORSDOF 2
ENDMDL
MODEL 5
REMARK VINA RESULT:    -9.438      2.520      4.905
REMARK INTER + INTRA:         -10.672
REMARK INTER:                 -10.527
REMARK INTRA:                  -0.145
REMARK UNBOUND:                -0.131
REMARK  Name = COc1ccc2c(c1O)[C@@]13CCN(C)[C@H](C2)[C@H]1C(Br)=CC=C3C               ZINC000100393694
REMARK  5 active torsions:
REMARK  status: ('A' for Active; 'I' for Inactive)
REMARK    1  A    between atoms: C_1  and  O_2
REMARK    2  A    between atoms: O_2  and  C_3
REMARK    3  A    between atoms: C_8  and  O_9
REMARK    4  A    between atoms: N_13  and  C_14
REMARK    5  A    between atoms: C_22  and  C_23
REMARK                            x       y       z     vdW  Elec       q    Type
REMARK                         _______ _______ _______ _____ _____    ______ ____
ROOT
ATOM      1  C   UNL     1       0.004   2.209 -22.356  0.00  0.00    +0.162 A 
ATOM      2  C   UNL     1      -0.547   2.073 -21.219  0.00  0.00    +0.049 A 
ATOM      3  C   UNL     1      -1.791   2.318 -21.116  0.00  0.00    +0.008 A 
ATOM      4  C   UNL     1      -2.545   2.749 -22.311  0.00  0.00    -0.034 A 
ATOM      5  C   UNL     1      -2.007   2.839 -23.233  0.00  0.00    +0.012 A 
ATOM      6  C   UNL     1      -2.293   3.099 -24.113  0.00  0.00    +0.038 C 
ATOM      7  C   UNL     1      -1.595   2.619 -22.645  0.00  0.00    +0.067 C 
ATOM      8  C   UNL     1      -2.442   2.530 -21.435  0.00  0.00    +0.132 C 
ATOM      9  N   UNL     1      -3.589   2.795 -21.510  0.00  0.00    +0.236 N 
ATOM     10  H   UNL     1      -4.499   3.073 -21.875  0.00  0.00    +0.203 HD
ATOM     11  C   UNL     1      -4.271   3.249 -22.879  0.00  0.00    +0.078 C 
ATOM     12  C   UNL     1      -3.712   2.530 -20.213  0.00  0.00    +0.190 C 
ATOM     13  C   UNL     1      -1.669   3.210 -25.210  0.00  0.00    -0.061 C 
ATOM     14  C   UNL     1      -0.445   2.968 -25.312  0.00  0.00    +0.040 C 
ATOM     15  C   UNL     1      -2.307   3.588 -26.283  0.00  0.00    +0.001 C 
ATOM     16  C   UNL     1      -3.600   3.858 -26.244  0.00  0.00    +0.011 C 
ATOM     17  C   UNL     1      -4.281   3.757 -25.139  0.00  0.00    +0.005 C 
ATOM     18 BR   UNL     1      -5.543   4.024 -25.112  0.00  0.00    -0.054 Br
ATOM     19  C   UNL     1      -3.698   3.394 -24.077  0.00  0.00    +0.090 C 
ATOM     20  C   UNL     1      -3.787   2.992 -22.202  0.00  0.00    +0.090 C 
ATOM     21  C   UNL     1      -0.711   2.590 -23.368  0.00  0.00    +0.163 A 
ENDROOT
BRANCH   1  23
ATOM     22  C   UNL     1       2.145   1.207 -22.126  0.00  0.00    +0.277 C 
ATOM     23  O   UNL     1       1.328   1.999 -22.694  0.00  0.00    -0.491 OA
ENDBRANCH   1  23
BRANCH  21  24
ATOM     24  O   UNL     1      -0.133   2.719 -24.498  0.00  0.00    -0.503 OA
ATOM     25  H   UNL     1       0.670   2.265 -24.669  0.00  0.00    +0.292 HD
ENDBRANCH  21  24
TORSDOF 2
ENDMDL
MODEL 6
REMARK VINA RESULT:    -9.035      2.608      5.247
REMARK INTER + INTRA:         -10.221
REMARK INTER:                 -10.079
REMARK INTRA:                  -0.143
REMARK UNBOUND:                -0.131
REMARK  Name = COc1ccc2c(c1O)[C@@]13CCN(C)[C@H](C2)[C@H]1C(Br)=CC=C3C               ZINC000100393694
REMARK  5 active torsions:
REMARK  status: ('A' for Active; 'I' for Inactive)
REMARK    1  A    between atoms: C_1  and  O_2
REMARK    2  A    between atoms: O_2  and  C_3
REMARK    3  A    between atoms: C_8  and  O_9
REMARK    4  A    between atoms: N_13  and  C_14
REMARK    5  A    between atoms: C_22  and  C_23
REMARK                            x       y       z     vdW  Elec       q    Type
REMARK                         _______ _______ _______ _____ _____    ______ ____
ROOT
ATOM      1  C   UNL     1       0.442   2.695 -24.539  0.00  0.00    +0.162 A 
ATOM      2  C   UNL     1       0.904   2.301 -23.423  0.00  0.00    +0.049 A 
ATOM      3  C   UNL     1       0.106   2.207 -22.437  0.00  0.00    +0.008 A 
ATOM      4  C   UNL     1      -1.318   2.555 -22.624  0.00  0.00    -0.034 A 
ATOM      5  C   UNL     1      -1.629   2.879 -23.596  0.00  0.00    +0.012 A 
ATOM      6  C   UNL     1      -2.488   3.148 -23.932  0.00  0.00    +0.038 C 
ATOM      7  C   UNL     1      -0.899   2.709 -23.535  0.00  0.00    +0.067 C 
ATOM      8  C   UNL     1      -0.591   2.277 -22.154  0.00  0.00    +0.132 C 
ATOM      9  N   UNL     1      -1.454   2.245 -21.351  0.00  0.00    +0.236 N 
ATOM     10  H   UNL     1      -2.367   2.317 -20.903  0.00  0.00    +0.203 HD
ATOM     11  C   UNL     1      -2.957   2.652 -21.698  0.00  0.00    +0.078 C 
ATOM     12  C   UNL     1      -0.571   1.820 -20.451  0.00  0.00    +0.190 C 
ATOM     13  C   UNL     1      -2.868   3.533 -25.078  0.00  0.00    -0.061 C 
ATOM     14  C   UNL     1      -2.083   3.626 -26.048  0.00  0.00    +0.040 C 
ATOM     15  C   UNL     1      -4.119   3.847 -25.273  0.00  0.00    +0.001 C 
ATOM     16  C   UNL     1      -5.000   3.771 -24.291  0.00  0.00    +0.011 C 
ATOM     17  C   UNL     1      -4.653   3.381 -23.098  0.00  0.00    +0.005 C 
ATOM     18 BR   UNL     1      -5.521   3.310 -22.146  0.00  0.00    -0.054 Br
ATOM     19  C   UNL     1      -3.449   3.067 -22.868  0.00  0.00    +0.090 C 
ATOM     20  C   UNL     1      -2.110   2.458 -21.635  0.00  0.00    +0.090 C 
ATOM     21  C   UNL     1      -0.817   2.986 -24.641  0.00  0.00    +0.163 A 
ENDROOT
BRANCH   1  23
ATOM     22  C   UNL     1       1.982   2.085 -26.241  0.00  0.00    +0.277 C 
ATOM     23  O   UNL     1       1.121   2.870 -25.731  0.00  0.00    -0.491 OA
ENDBRANCH   1  23
BRANCH  21  24
ATOM     24  O   UNL     1      -1.255   3.379 -25.772  0.00  0.00    -0.503 OA
ATOM     25  H   UNL     1      -1.257   4.293 -25.984  0.00  0.00    +0.292 HD
ENDBRANCH  21  24
TORSDOF 2
ENDMDL
MODEL 7
REMARK VINA RESULT:    -8.223      1.787      3.800
REMARK INTER + INTRA:          -9.315
REMARK INTER:                  -9.173
REMARK INTRA:                  -0.142
REMARK UNBOUND:                -0.131
REMARK  Name = COc1ccc2c(c1O)[C@@]13CCN(C)[C@H](C2)[C@H]1C(Br)=CC=C3C               ZINC000100393694
REMARK  5 active torsions:
REMARK  status: ('A' for Active; 'I' for Inactive)
REMARK    1  A    between atoms: C_1  and  O_2
REMARK    2  A    between atoms: O_2  and  C_3
REMARK    3  A    between atoms: C_8  and  O_9
REMARK    4  A    between atoms: N_13  and  C_14
REMARK    5  A    between atoms: C_22  and  C_23
REMARK                            x       y       z     vdW  Elec       q    Type
REMARK                         _______ _______ _______ _____ _____    ______ ____
ROOT
ATOM      1  C   UNL     1      -2.967   2.861 -22.473  0.00  0.00    +0.162 A 
ATOM      2  C   UNL     1      -2.653   2.333 -21.361  0.00  0.00    +0.049 A 
ATOM      3  C   UNL     1      -1.436   2.021 -21.162  0.00  0.00    +0.008 A 
ATOM      4  C   UNL     1      -0.440   2.283 -22.222  0.00  0.00    -0.034 A 
ATOM      5  C   UNL     1      -0.786   2.732 -23.130  0.00  0.00    +0.012 A 
ATOM      6  C   UNL     1      -0.320   2.984 -23.932  0.00  0.00    +0.038 C 
ATOM      7  C   UNL     1      -1.317   2.612 -22.612  0.00  0.00    +0.067 C 
ATOM      8  C   UNL     1      -0.722   1.992 -21.408  0.00  0.00    +0.132 C 
ATOM      9  N   UNL     1       0.435   1.766 -21.384  0.00  0.00    +0.236 N 
ATOM     10  H   UNL     1       1.417   1.695 -21.652  0.00  0.00    +0.203 HD
ATOM     11  C   UNL     1       1.396   2.105 -22.612  0.00  0.00    +0.078 C 
ATOM     12  C   UNL     1       0.291   1.274 -20.157  0.00  0.00    +0.190 C 
ATOM     13  C   UNL     1      -0.716   3.515 -25.012  0.00  0.00    -0.061 C 
ATOM     14  C   UNL     1      -1.914   3.822 -25.209  0.00  0.00    +0.040 C 
ATOM     15  C   UNL     1       0.140   3.759 -25.967  0.00  0.00    +0.001 C 
ATOM     16  C   UNL     1       1.419   3.459 -25.823  0.00  0.00    +0.011 C 
ATOM     17  C   UNL     1       1.870   2.913 -24.731  0.00  0.00    +0.005 C 
ATOM     18 BR   UNL     1       3.121   2.625 -24.602  0.00  0.00    -0.054 Br
ATOM     19  C   UNL     1       1.071   2.661 -23.783  0.00  0.00    +0.090 C 
ATOM     20  C   UNL     1       0.774   1.970 -22.017  0.00  0.00    +0.090 C 
ATOM     21  C   UNL     1      -2.048   3.067 -23.364  0.00  0.00    +0.163 A 
ENDROOT
BRANCH   1  23
ATOM     22  C   UNL     1      -5.285   3.308 -22.211  0.00  0.00    +0.277 C 
ATOM     23  O   UNL     1      -4.216   3.275 -22.898  0.00  0.00    -0.491 OA
ENDBRANCH   1  23
BRANCH  21  24
ATOM     24  O   UNL     1      -2.391   3.599 -24.471  0.00  0.00    -0.503 OA
ATOM     25  H   UNL     1      -2.055   3.261 -25.278  0.00  0.00    +0.292 HD
ENDBRANCH  21  24
TORSDOF 2
ENDMDL
MODEL 8
REMARK VINA RESULT:    -8.027      4.514      6.466
REMARK INTER + INTRA:          -9.096
REMARK INTER:                  -8.959
REMARK INTRA:                  -0.137
REMARK UNBOUND:                -0.131
REMARK  Name = COc1ccc2c(c1O)[C@@]13CCN(C)[C@H](C2)[C@H]1C(Br)=CC=C3C               ZINC000100393694
REMARK  5 active torsions:
REMARK  status: ('A' for Active; 'I' for Inactive)
REMARK    1  A    between atoms: C_1  and  O_2
REMARK    2  A    between atoms: O_2  and  C_3
REMARK    3  A    between atoms: C_8  and  O_9
REMARK    4  A    between atoms: N_13  and  C_14
REMARK    5  A    between atoms: C_22  and  C_23
REMARK                            x       y       z     vdW  Elec       q    Type
REMARK                         _______ _______ _______ _____ _____    ______ ____
ROOT
ATOM      1  C   UNL     1       1.026   4.388 -23.800  0.00  0.00    +0.162 A 
ATOM      2  C   UNL     1       0.892   3.209 -24.252  0.00  0.00    +0.049 A 
ATOM      3  C   UNL     1       1.923   2.468 -24.324  0.00  0.00    +0.008 A 
ATOM      4  C   UNL     1       3.229   3.000 -23.884  0.00  0.00    -0.034 A 
ATOM      5  C   UNL     1       3.258   4.005 -23.515  0.00  0.00    +0.012 A 
ATOM      6  C   UNL     1       3.985   4.540 -23.183  0.00  0.00    +0.038 C 
ATOM      7  C   UNL     1       2.580   3.765 -23.730  0.00  0.00    +0.067 C 
ATOM      8  C   UNL     1       2.666   2.371 -24.218  0.00  0.00    +0.132 C 
ATOM      9  N   UNL     1       3.708   1.821 -24.220  0.00  0.00    +0.236 N 
ATOM     10  H   UNL     1       4.702   1.622 -24.103  0.00  0.00    +0.203 HD
ATOM     11  C   UNL     1       5.045   2.526 -23.711  0.00  0.00    +0.078 C 
ATOM     12  C   UNL     1       3.114   0.742 -24.723  0.00  0.00    +0.190 C 
ATOM     13  C   UNL     1       4.033   5.728 -22.744  0.00  0.00    -0.061 C 
ATOM     14  C   UNL     1       3.018   6.457 -22.673  0.00  0.00    +0.040 C 
ATOM     15  C   UNL     1       5.171   6.227 -22.348  0.00  0.00    +0.001 C 
ATOM     16  C   UNL     1       6.280   5.509 -22.397  0.00  0.00    +0.011 C 
ATOM     17  C   UNL     1       6.277   4.285 -22.841  0.00  0.00    +0.005 C 
ATOM     18 BR   UNL     1       7.366   3.594 -22.884  0.00  0.00    -0.054 Br
ATOM     19  C   UNL     1       5.193   3.766 -23.234  0.00  0.00    +0.090 C 
ATOM     20  C   UNL     1       4.256   2.256 -23.958  0.00  0.00    +0.090 C 
ATOM     21  C   UNL     1       2.198   4.799 -23.428  0.00  0.00    +0.163 A 
ENDROOT
BRANCH   1  23
ATOM     22  C   UNL     1      -1.082   5.210 -23.077  0.00  0.00    +0.277 C 
ATOM     23  O   UNL     1       0.052   5.355 -23.635  0.00  0.00    -0.491 OA
ENDBRANCH   1  23
BRANCH  21  24
ATOM     24  O   UNL     1       2.305   5.988 -22.978  0.00  0.00    -0.503 OA
ATOM     25  H   UNL     1       2.831   6.617 -23.433  0.00  0.00    +0.292 HD
ENDBRANCH  21  24
TORSDOF 2
ENDMDL
MODEL 9
REMARK VINA RESULT:    -7.745      5.381      8.146
REMARK INTER + INTRA:          -8.782
REMARK INTER:                  -8.651
REMARK INTRA:                  -0.131
REMARK UNBOUND:                -0.131
REMARK  Name = COc1ccc2c(c1O)[C@@]13CCN(C)[C@H](C2)[C@H]1C(Br)=CC=C3C               ZINC000100393694
REMARK  5 active torsions:
REMARK  status: ('A' for Active; 'I' for Inactive)
REMARK    1  A    between atoms: C_1  and  O_2
REMARK    2  A    between atoms: O_2  and  C_3
REMARK    3  A    between atoms: C_8  and  O_9
REMARK    4  A    between atoms: N_13  and  C_14
REMARK    5  A    between atoms: C_22  and  C_23
REMARK                            x       y       z     vdW  Elec       q    Type
REMARK                         _______ _______ _______ _____ _____    ______ ____
ROOT
ATOM      1  C   UNL     1       6.230   3.834 -23.038  0.00  0.00    +0.162 A 
ATOM      2  C   UNL     1       6.370   5.013 -22.585  0.00  0.00    +0.049 A 
ATOM      3  C   UNL     1       5.339   5.752 -22.495  0.00  0.00    +0.008 A 
ATOM      4  C   UNL     1       4.027   5.219 -22.917  0.00  0.00    -0.034 A 
ATOM      5  C   UNL     1       3.994   4.215 -23.289  0.00  0.00    +0.012 A 
ATOM      6  C   UNL     1       3.263   3.680 -23.610  0.00  0.00    +0.038 C 
ATOM      7  C   UNL     1       4.675   4.456 -23.082  0.00  0.00    +0.067 C 
ATOM      8  C   UNL     1       4.595   5.848 -22.589  0.00  0.00    +0.132 C 
ATOM      9  N   UNL     1       3.552   6.397 -22.571  0.00  0.00    +0.236 N 
ATOM     10  H   UNL     1       2.557   6.596 -22.672  0.00  0.00    +0.203 HD
ATOM     11  C   UNL     1       2.208   5.691 -23.062  0.00  0.00    +0.078 C 
ATOM     12  C   UNL     1       4.153   7.475 -22.074  0.00  0.00    +0.190 C 
ATOM     13  C   UNL     1       3.210   2.494 -24.052  0.00  0.00    -0.061 C 
ATOM     14  C   UNL     1       4.224   1.766 -24.140  0.00  0.00    +0.040 C 
ATOM     15  C   UNL     1       2.066   1.995 -24.432  0.00  0.00    +0.001 C 
ATOM     16  C   UNL     1       0.957   2.711 -24.364  0.00  0.00    +0.011 C 
ATOM     17  C   UNL     1       0.965   3.934 -23.918  0.00  0.00    +0.005 C 
ATOM     18 BR   UNL     1      -0.123   4.623 -23.856  0.00  0.00    -0.054 Br
ATOM     19  C   UNL     1       2.055   4.453 -23.539  0.00  0.00    +0.090 C 
ATOM     20  C   UNL     1       3.001   5.962 -22.825  0.00  0.00    +0.090 C 
ATOM     21  C   UNL     1       5.053   3.423 -23.393  0.00  0.00    +0.163 A 
ENDROOT
BRANCH   1  23
ATOM     22  C   UNL     1       8.298   2.998 -23.854  0.00  0.00    +0.277 C 
ATOM     23  O   UNL     1       7.203   2.869 -23.220  0.00  0.00    -0.491 OA
ENDBRANCH   1  23
BRANCH  21  24
ATOM     24  O   UNL     1       4.941   2.235 -23.844  0.00  0.00    -0.503 OA
ATOM     25  H   UNL     1       4.877   1.512 -23.251  0.00  0.00    +0.292 HD
ENDBRANCH  21  24
TORSDOF 2
ENDMDL
