MODEL 1
REMARK VINA RESULT:   -10.968      0.000      0.000
REMARK INTER + INTRA:         -12.072
REMARK INTER:                 -11.959
REMARK INTRA:                  -0.113
REMARK UNBOUND:                -0.142
REMARK  Name = COc1ccc2c3c1O[C@]1(C)[C@@H](O)[C@H](Cl)C=C4[C@@H](C2)N(C)CC[C@@]431  ZINC000100393468
REMARK  5 active torsions:
REMARK  status: ('A' for Active; 'I' for Inactive)
REMARK    1  A    between atoms: C_1  and  O_2
REMARK    2  A    between atoms: O_2  and  C_3
REMARK    3  A    between atoms: C_10  and  C_11
REMARK    4  A    between atoms: C_12  and  O_13
REMARK    5  A    between atoms: N_20  and  C_21
REMARK                            x       y       z     vdW  Elec       q    Type
REMARK                         _______ _______ _______ _____ _____    ______ ____
ROOT
ATOM      1  C   UNL     1       1.618   2.271 -23.786  0.00  0.00    +0.162 A 
ATOM      2  C   UNL     1       1.912   1.808 -22.643  0.00  0.00    +0.050 A 
ATOM      3  C   UNL     1       1.031   1.690 -21.760  0.00  0.00    +0.008 A 
ATOM      4  C   UNL     1      -0.152   2.031 -22.005  0.00  0.00    -0.034 A 
ATOM      5  C   UNL     1      -0.465   2.494 -23.137  0.00  0.00    +0.016 A 
ATOM      6  C   UNL     1      -1.646   2.834 -23.379  0.00  0.00    +0.072 C 
ATOM      7  C   UNL     1      -2.952   3.252 -23.770  0.00  0.00    +0.071 C 
ATOM      8  C   UNL     1      -3.966   3.130 -22.793  0.00  0.00    +0.133 C 
ATOM      9  N   UNL     1      -3.600   2.610 -21.532  0.00  0.00    +0.239 N 
ATOM     10  H   UNL     1      -4.291   2.500 -20.789  0.00  0.00    +0.204 HD
ATOM     11  C   UNL     1      -4.438   2.470 -20.612  0.00  0.00    +0.191 C 
ATOM     12  C   UNL     1      -2.230   2.253 -21.356  0.00  0.00    +0.096 C 
ATOM     13  C   UNL     1      -2.528   2.716 -22.497  0.00  0.00    -0.010 C 
ATOM     14  C   UNL     1      -3.722   3.060 -22.744  0.00  0.00    +0.000 C 
ATOM     15  C   UNL     1      -4.022   3.519 -23.871  0.00  0.00    +0.136 C 
ATOM     16 CL   UNL     1      -5.203   3.858 -24.111  0.00  0.00    -0.115 Cl
ATOM     17  C   UNL     1      -3.136   3.640 -24.768  0.00  0.00    +0.180 C 
ATOM     18  C   UNL     1      -1.955   3.300 -24.525  0.00  0.00    +0.149 C 
ATOM     19  C   UNL     1      -1.970   3.717 -25.708  0.00  0.00    +0.060 C 
ATOM     20  O   UNL     1      -0.540   3.176 -25.043  0.00  0.00    -0.478 OA
ATOM     21  C   UNL     1      -1.050   1.912 -21.110  0.00  0.00    +0.094 C 
ATOM     22  C   UNL     1       0.422   2.615 -24.032  0.00  0.00    +0.167 A 
ENDROOT
BRANCH   1  24
ATOM     23  C   UNL     1       3.702   2.165 -24.386  0.00  0.00    +0.277 C 
ATOM     24  O   UNL     1       2.501   2.388 -24.667  0.00  0.00    -0.491 OA
ENDBRANCH   1  24
BRANCH  17  25
ATOM     25  O   UNL     1      -3.441   4.100 -25.894  0.00  0.00    -0.386 OA
ATOM     26  H   UNL     1      -2.702   3.968 -26.508  0.00  0.00    +0.210 HD
ENDBRANCH  17  25
TORSDOF 2
ENDMDL
MODEL 2
REMARK VINA RESULT:   -10.893      1.873      3.096
REMARK INTER + INTRA:         -11.990
REMARK INTER:                 -11.843
REMARK INTRA:                  -0.147
REMARK UNBOUND:                -0.142
REMARK  Name = COc1ccc2c3c1O[C@]1(C)[C@@H](O)[C@H](Cl)C=C4[C@@H](C2)N(C)CC[C@@]431  ZINC000100393468
REMARK  5 active torsions:
REMARK  status: ('A' for Active; 'I' for Inactive)
REMARK    1  A    between atoms: C_1  and  O_2
REMARK    2  A    between atoms: O_2  and  C_3
REMARK    3  A    between atoms: C_10  and  C_11
REMARK    4  A    between atoms: C_12  and  O_13
REMARK    5  A    between atoms: N_20  and  C_21
REMARK                            x       y       z     vdW  Elec       q    Type
REMARK                         _______ _______ _______ _____ _____    ______ ____
ROOT
ATOM      1  C   UNL     1       1.314   3.091 -23.298  0.00  0.00    +0.162 A 
ATOM      2  C   UNL     1       1.542   3.224 -24.538  0.00  0.00    +0.050 A 
ATOM      3  C   UNL     1       0.596   3.370 -25.345  0.00  0.00    +0.008 A 
ATOM      4  C   UNL     1      -0.589   3.386 -24.927  0.00  0.00    -0.034 A 
ATOM      5  C   UNL     1      -0.835   3.255 -23.696  0.00  0.00    +0.016 A 
ATOM      6  C   UNL     1      -2.017   3.271 -23.282  0.00  0.00    +0.072 C 
ATOM      7  C   UNL     1      -3.317   3.272 -22.694  0.00  0.00    +0.071 C 
ATOM      8  C   UNL     1      -4.405   3.436 -23.582  0.00  0.00    +0.133 C 
ATOM      9  N   UNL     1      -4.111   3.581 -24.956  0.00  0.00    +0.239 N 
ATOM     10  H   UNL     1      -4.856   3.703 -25.642  0.00  0.00    +0.204 HD
ATOM     11  C   UNL     1      -5.016   3.731 -25.808  0.00  0.00    +0.191 C 
ATOM     12  C   UNL     1      -2.734   3.550 -25.327  0.00  0.00    +0.096 C 
ATOM     13  C   UNL     1      -2.965   3.417 -24.088  0.00  0.00    -0.010 C 
ATOM     14  C   UNL     1      -4.160   3.433 -23.666  0.00  0.00    +0.000 C 
ATOM     15  C   UNL     1      -4.395   3.302 -22.443  0.00  0.00    +0.136 C 
ATOM     16 CL   UNL     1      -5.577   3.318 -22.030  0.00  0.00    -0.115 Cl
ATOM     17  C   UNL     1      -3.442   3.153 -21.621  0.00  0.00    +0.180 C 
ATOM     18  C   UNL     1      -2.260   3.138 -22.037  0.00  0.00    +0.149 C 
ATOM     19  C   UNL     1      -2.203   2.988 -20.792  0.00  0.00    +0.060 C 
ATOM     20  O   UNL     1      -0.795   3.016 -21.685  0.00  0.00    -0.478 OA
ATOM     21  C   UNL     1      -1.553   3.535 -25.745  0.00  0.00    +0.094 C 
ATOM     22  C   UNL     1       0.117   3.107 -22.877  0.00  0.00    +0.167 A 
ENDROOT
BRANCH   1  24
ATOM     23  C   UNL     1       2.522   1.809 -22.028  0.00  0.00    +0.277 C 
ATOM     24  O   UNL     1       2.263   2.944 -22.493  0.00  0.00    -0.491 OA
ENDBRANCH   1  24
BRANCH  17  25
ATOM     25  O   UNL     1      -3.682   3.023 -20.397  0.00  0.00    -0.386 OA
ATOM     26  H   UNL     1      -4.072   2.150 -20.236  0.00  0.00    +0.210 HD
ENDBRANCH  17  25
TORSDOF 2
ENDMDL
MODEL 3
REMARK VINA RESULT:   -10.760      2.371      4.940
REMARK INTER + INTRA:         -11.845
REMARK INTER:                 -11.733
REMARK INTRA:                  -0.112
REMARK UNBOUND:                -0.142
REMARK  Name = COc1ccc2c3c1O[C@]1(C)[C@@H](O)[C@H](Cl)C=C4[C@@H](C2)N(C)CC[C@@]431  ZINC000100393468
REMARK  5 active torsions:
REMARK  status: ('A' for Active; 'I' for Inactive)
REMARK    1  A    between atoms: C_1  and  O_2
REMARK    2  A    between atoms: O_2  and  C_3
REMARK    3  A    between atoms: C_10  and  C_11
REMARK    4  A    between atoms: C_12  and  O_13
REMARK    5  A    between atoms: N_20  and  C_21
REMARK                            x       y       z     vdW  Elec       q    Type
REMARK                         _______ _______ _______ _____ _____    ______ ____
ROOT
ATOM      1  C   UNL     1      -3.480   3.276 -23.160  0.00  0.00    +0.162 A 
ATOM      2  C   UNL     1      -3.729   2.799 -22.013  0.00  0.00    +0.050 A 
ATOM      3  C   UNL     1      -2.818   2.278 -21.330  0.00  0.00    +0.008 A 
ATOM      4  C   UNL     1      -1.647   2.226 -21.782  0.00  0.00    -0.034 A 
ATOM      5  C   UNL     1      -1.379   2.695 -22.923  0.00  0.00    +0.016 A 
ATOM      6  C   UNL     1      -0.211   2.641 -23.371  0.00  0.00    +0.072 C 
ATOM      7  C   UNL     1       1.077   2.638 -23.986  0.00  0.00    +0.071 C 
ATOM      8  C   UNL     1       2.125   2.056 -23.237  0.00  0.00    +0.133 C 
ATOM      9  N   UNL     1       1.808   1.536 -21.963  0.00  0.00    +0.239 N 
ATOM     10  H   UNL     1       2.525   1.104 -21.378  0.00  0.00    +0.204 HD
ATOM     11  C   UNL     1       2.678   1.003 -21.236  0.00  0.00    +0.191 C 
ATOM     12  C   UNL     1       0.449   1.645 -21.542  0.00  0.00    +0.096 C 
ATOM     13  C   UNL     1       0.702   2.120 -22.689  0.00  0.00    -0.010 C 
ATOM     14  C   UNL     1       1.883   2.067 -23.145  0.00  0.00    +0.000 C 
ATOM     15  C   UNL     1       2.140   2.536 -24.278  0.00  0.00    +0.136 C 
ATOM     16 CL   UNL     1       3.308   2.482 -24.726  0.00  0.00    -0.115 Cl
ATOM     17  C   UNL     1       1.222   3.064 -24.974  0.00  0.00    +0.180 C 
ATOM     18  C   UNL     1       0.054   3.117 -24.524  0.00  0.00    +0.149 C 
ATOM     19  C   UNL     1       0.024   3.651 -25.660  0.00  0.00    +0.060 C 
ATOM     20  O   UNL     1      -1.376   3.547 -24.760  0.00  0.00    -0.478 OA
ATOM     21  C   UNL     1      -0.718   1.696 -21.090  0.00  0.00    +0.094 C 
ATOM     22  C   UNL     1      -2.296   3.222 -23.616  0.00  0.00    +0.167 A 
ENDROOT
BRANCH   1  24
ATOM     23  C   UNL     1      -5.575   3.776 -23.426  0.00  0.00    +0.277 C 
ATOM     24  O   UNL     1      -4.393   3.797 -23.842  0.00  0.00    -0.491 OA
ENDBRANCH   1  24
BRANCH  17  25
ATOM     25  O   UNL     1       1.483   3.532 -26.108  0.00  0.00    -0.386 OA
ATOM     26  H   UNL     1       1.037   4.386 -26.216  0.00  0.00    +0.210 HD
ENDBRANCH  17  25
TORSDOF 2
ENDMDL
MODEL 4
REMARK VINA RESULT:   -10.650      2.648      5.613
REMARK INTER + INTRA:         -11.726
REMARK INTER:                 -11.609
REMARK INTRA:                  -0.117
REMARK UNBOUND:                -0.142
REMARK  Name = COc1ccc2c3c1O[C@]1(C)[C@@H](O)[C@H](Cl)C=C4[C@@H](C2)N(C)CC[C@@]431  ZINC000100393468
REMARK  5 active torsions:
REMARK  status: ('A' for Active; 'I' for Inactive)
REMARK    1  A    between atoms: C_1  and  O_2
REMARK    2  A    between atoms: O_2  and  C_3
REMARK    3  A    between atoms: C_10  and  C_11
REMARK    4  A    between atoms: C_12  and  O_13
REMARK    5  A    between atoms: N_20  and  C_21
REMARK                            x       y       z     vdW  Elec       q    Type
REMARK                         _______ _______ _______ _____ _____    ______ ____
ROOT
ATOM      1  C   UNL     1      -4.612   3.714 -22.982  0.00  0.00    +0.162 A 
ATOM      2  C   UNL     1      -4.814   4.164 -24.149  0.00  0.00    +0.050 A 
ATOM      3  C   UNL     1      -3.889   4.175 -24.995  0.00  0.00    +0.008 A 
ATOM      4  C   UNL     1      -2.753   3.738 -24.686  0.00  0.00    -0.034 A 
ATOM      5  C   UNL     1      -2.533   3.285 -23.528  0.00  0.00    +0.016 A 
ATOM      6  C   UNL     1      -1.398   2.850 -23.224  0.00  0.00    +0.072 C 
ATOM      7  C   UNL     1      -0.153   2.329 -22.762  0.00  0.00    +0.071 C 
ATOM      8  C   UNL     1       0.909   2.329 -23.695  0.00  0.00    +0.133 C 
ATOM      9  N   UNL     1       0.646   2.839 -24.986  0.00  0.00    +0.239 N 
ATOM     10  H   UNL     1       1.375   2.864 -25.699  0.00  0.00    +0.204 HD
ATOM     11  C   UNL     1       1.531   2.875 -25.870  0.00  0.00    +0.191 C 
ATOM     12  C   UNL     1      -0.678   3.311 -25.234  0.00  0.00    +0.096 C 
ATOM     13  C   UNL     1      -0.472   2.860 -24.068  0.00  0.00    -0.010 C 
ATOM     14  C   UNL     1       0.674   2.419 -23.757  0.00  0.00    +0.000 C 
ATOM     15  C   UNL     1       0.883   1.972 -22.605  0.00  0.00    +0.136 C 
ATOM     16 CL   UNL     1       2.018   1.537 -22.302  0.00  0.00    -0.115 Cl
ATOM     17  C   UNL     1      -0.048   1.958 -21.747  0.00  0.00    +0.180 C 
ATOM     18  C   UNL     1      -1.182   2.394 -22.053  0.00  0.00    +0.149 C 
ATOM     19  C   UNL     1      -1.255   2.015 -20.859  0.00  0.00    +0.060 C 
ATOM     20  O   UNL     1      -2.601   2.660 -21.603  0.00  0.00    -0.478 OA
ATOM     21  C   UNL     1      -1.810   3.747 -25.543  0.00  0.00    +0.094 C 
ATOM     22  C   UNL     1      -3.464   3.272 -22.672  0.00  0.00    +0.167 A 
ENDROOT
BRANCH   1  24
ATOM     23  C   UNL     1      -6.018   2.613 -21.747  0.00  0.00    +0.277 C 
ATOM     24  O   UNL     1      -5.539   3.703 -22.139  0.00  0.00    -0.491 OA
ENDBRANCH   1  24
BRANCH  17  25
ATOM     25  O   UNL     1       0.165   1.510 -20.595  0.00  0.00    -0.386 OA
ATOM     26  H   UNL     1       0.685   0.693 -20.657  0.00  0.00    +0.210 HD
ENDBRANCH  17  25
TORSDOF 2
ENDMDL
MODEL 5
REMARK VINA RESULT:   -10.162      1.379      2.127
REMARK INTER + INTRA:         -11.195
REMARK INTER:                 -11.048
REMARK INTRA:                  -0.148
REMARK UNBOUND:                -0.142
REMARK  Name = COc1ccc2c3c1O[C@]1(C)[C@@H](O)[C@H](Cl)C=C4[C@@H](C2)N(C)CC[C@@]431  ZINC000100393468
REMARK  5 active torsions:
REMARK  status: ('A' for Active; 'I' for Inactive)
REMARK    1  A    between atoms: C_1  and  O_2
REMARK    2  A    between atoms: O_2  and  C_3
REMARK    3  A    between atoms: C_10  and  C_11
REMARK    4  A    between atoms: C_12  and  O_13
REMARK    5  A    between atoms: N_20  and  C_21
REMARK                            x       y       z     vdW  Elec       q    Type
REMARK                         _______ _______ _______ _____ _____    ______ ____
ROOT
ATOM      1  C   UNL     1       3.543   1.815 -22.646  0.00  0.00    +0.162 A 
ATOM      2  C   UNL     1       3.473   1.355 -21.467  0.00  0.00    +0.050 A 
ATOM      3  C   UNL     1       2.369   1.278 -20.879  0.00  0.00    +0.008 A 
ATOM      4  C   UNL     1       1.323   1.660 -21.460  0.00  0.00    -0.034 A 
ATOM      5  C   UNL     1       1.372   2.121 -22.634  0.00  0.00    +0.016 A 
ATOM      6  C   UNL     1       0.327   2.501 -23.210  0.00  0.00    +0.072 C 
ATOM      7  C   UNL     1      -0.792   2.963 -23.965  0.00  0.00    +0.071 C 
ATOM      8  C   UNL     1      -2.051   2.889 -23.327  0.00  0.00    +0.133 C 
ATOM      9  N   UNL     1      -2.089   2.370 -22.014  0.00  0.00    +0.239 N 
ATOM     10  H   UNL     1      -2.970   2.293 -21.504  0.00  0.00    +0.204 HD
ATOM     11  C   UNL     1      -3.163   2.270 -21.378  0.00  0.00    +0.191 C 
ATOM     12  C   UNL     1      -0.844   1.965 -21.445  0.00  0.00    +0.096 C 
ATOM     13  C   UNL     1      -0.778   2.425 -22.623  0.00  0.00    -0.010 C 
ATOM     14  C   UNL     1      -1.834   2.810 -23.208  0.00  0.00    +0.000 C 
ATOM     15  C   UNL     1      -1.775   3.267 -24.374  0.00  0.00    +0.136 C 
ATOM     16 CL   UNL     1      -2.821   3.646 -24.949  0.00  0.00    -0.115 Cl
ATOM     17  C   UNL     1      -0.662   3.346 -24.973  0.00  0.00    +0.180 C 
ATOM     18  C   UNL     1       0.383   2.966 -24.396  0.00  0.00    +0.149 C 
ATOM     19  C   UNL     1       0.730   3.370 -25.532  0.00  0.00    +0.060 C 
ATOM     20  O   UNL     1       1.882   2.784 -24.478  0.00  0.00    -0.478 OA
ATOM     21  C   UNL     1       0.198   1.584 -20.865  0.00  0.00    +0.094 C 
ATOM     22  C   UNL     1       2.485   2.200 -23.230  0.00  0.00    +0.167 A 
ENDROOT
BRANCH   1  24
ATOM     23  C   UNL     1       5.238   2.993 -23.318  0.00  0.00    +0.277 C 
ATOM     24  O   UNL     1       4.648   1.890 -23.231  0.00  0.00    -0.491 OA
ENDBRANCH   1  24
BRANCH  17  25
ATOM     25  O   UNL     1      -0.607   3.804 -26.139  0.00  0.00    -0.386 OA
ATOM     26  H   UNL     1      -0.183   3.154 -26.722  0.00  0.00    +0.210 HD
ENDBRANCH  17  25
TORSDOF 2
ENDMDL
MODEL 6
REMARK VINA RESULT:   -10.037      3.490      6.414
REMARK INTER + INTRA:         -11.059
REMARK INTER:                 -10.940
REMARK INTRA:                  -0.119
REMARK UNBOUND:                -0.142
REMARK  Name = COc1ccc2c3c1O[C@]1(C)[C@@H](O)[C@H](Cl)C=C4[C@@H](C2)N(C)CC[C@@]431  ZINC000100393468
REMARK  5 active torsions:
REMARK  status: ('A' for Active; 'I' for Inactive)
REMARK    1  A    between atoms: C_1  and  O_2
REMARK    2  A    between atoms: O_2  and  C_3
REMARK    3  A    between atoms: C_10  and  C_11
REMARK    4  A    between atoms: C_12  and  O_13
REMARK    5  A    between atoms: N_20  and  C_21
REMARK                            x       y       z     vdW  Elec       q    Type
REMARK                         _______ _______ _______ _____ _____    ______ ____
ROOT
ATOM      1  C   UNL     1      -1.256   3.271 -23.400  0.00  0.00    +0.162 A 
ATOM      2  C   UNL     1      -1.341   4.513 -23.636  0.00  0.00    +0.050 A 
ATOM      3  C   UNL     1      -0.316   5.233 -23.629  0.00  0.00    +0.008 A 
ATOM      4  C   UNL     1       0.806   4.722 -23.386  0.00  0.00    -0.034 A 
ATOM      5  C   UNL     1       0.911   3.487 -23.148  0.00  0.00    +0.016 A 
ATOM      6  C   UNL     1       2.031   2.981 -22.906  0.00  0.00    +0.072 C 
ATOM      7  C   UNL     1       3.248   2.294 -22.618  0.00  0.00    +0.071 C 
ATOM      8  C   UNL     1       4.421   3.081 -22.603  0.00  0.00    +0.133 C 
ATOM      9  N   UNL     1       4.287   4.461 -22.871  0.00  0.00    +0.239 N 
ATOM     10  H   UNL     1       5.100   5.078 -22.874  0.00  0.00    +0.204 HD
ATOM     11  C   UNL     1       5.277   5.228 -22.877  0.00  0.00    +0.191 C 
ATOM     12  C   UNL     1       2.969   4.941 -23.135  0.00  0.00    +0.096 C 
ATOM     13  C   UNL     1       3.057   3.699 -22.898  0.00  0.00    -0.010 C 
ATOM     14  C   UNL     1       4.189   3.185 -22.653  0.00  0.00    +0.000 C 
ATOM     15  C   UNL     1       4.283   1.958 -22.417  0.00  0.00    +0.136 C 
ATOM     16 CL   UNL     1       5.403   1.453 -22.175  0.00  0.00    -0.115 Cl
ATOM     17  C   UNL     1       3.250   1.225 -22.423  0.00  0.00    +0.180 C 
ATOM     18  C   UNL     1       2.130   1.733 -22.666  0.00  0.00    +0.149 C 
ATOM     19  C   UNL     1       1.933   0.509 -22.470  0.00  0.00    +0.060 C 
ATOM     20  O   UNL     1       0.643   1.505 -22.824  0.00  0.00    -0.478 OA
ATOM     21  C   UNL     1       1.851   5.451 -23.378  0.00  0.00    +0.094 C 
ATOM     22  C   UNL     1      -0.122   2.757 -23.154  0.00  0.00    +0.167 A 
ENDROOT
BRANCH   1  24
ATOM     23  C   UNL     1      -3.358   2.991 -22.932  0.00  0.00    +0.277 C 
ATOM     24  O   UNL     1      -2.284   2.554 -23.408  0.00  0.00    -0.491 OA
ENDBRANCH   1  24
BRANCH  17  25
ATOM     25  O   UNL     1       3.348  -0.002 -22.188  0.00  0.00    -0.386 OA
ATOM     26  H   UNL     1       3.985  -0.144 -21.470  0.00  0.00    +0.210 HD
ENDBRANCH  17  25
TORSDOF 2
ENDMDL
MODEL 7
REMARK VINA RESULT:    -9.808      2.876      5.724
REMARK INTER + INTRA:         -10.810
REMARK INTER:                 -10.691
REMARK INTRA:                  -0.119
REMARK UNBOUND:                -0.142
REMARK  Name = COc1ccc2c3c1O[C@]1(C)[C@@H](O)[C@H](Cl)C=C4[C@@H](C2)N(C)CC[C@@]431  ZINC000100393468
REMARK  5 active torsions:
REMARK  status: ('A' for Active; 'I' for Inactive)
REMARK    1  A    between atoms: C_1  and  O_2
REMARK    2  A    between atoms: O_2  and  C_3
REMARK    3  A    between atoms: C_10  and  C_11
REMARK    4  A    between atoms: C_12  and  O_13
REMARK    5  A    between atoms: N_20  and  C_21
REMARK                            x       y       z     vdW  Elec       q    Type
REMARK                         _______ _______ _______ _____ _____    ______ ____
ROOT
ATOM      1  C   UNL     1      -2.870   3.218 -24.394  0.00  0.00    +0.162 A 
ATOM      2  C   UNL     1      -2.569   3.675 -25.537  0.00  0.00    +0.050 A 
ATOM      3  C   UNL     1      -1.373   3.727 -25.906  0.00  0.00    +0.008 A 
ATOM      4  C   UNL     1      -0.463   3.325 -25.139  0.00  0.00    -0.034 A 
ATOM      5  C   UNL     1      -0.742   2.867 -23.997  0.00  0.00    +0.016 A 
ATOM      6  C   UNL     1       0.167   2.467 -23.234  0.00  0.00    +0.072 C 
ATOM      7  C   UNL     1       1.114   1.983 -22.282  0.00  0.00    +0.071 C 
ATOM      8  C   UNL     1       2.472   2.030 -22.671  0.00  0.00    +0.133 C 
ATOM      9  N   UNL     1       2.767   2.546 -23.953  0.00  0.00    +0.239 N 
ATOM     10  H   UNL     1       3.730   2.603 -24.286  0.00  0.00    +0.204 HD
ATOM     11  C   UNL     1       3.944   2.622 -24.374  0.00  0.00    +0.191 C 
ATOM     12  C   UNL     1       1.661   2.976 -24.745  0.00  0.00    +0.096 C 
ATOM     13  C   UNL     1       1.364   2.518 -23.601  0.00  0.00    -0.010 C 
ATOM     14  C   UNL     1       2.283   2.113 -22.828  0.00  0.00    +0.000 C 
ATOM     15  C   UNL     1       1.995   1.660 -21.696  0.00  0.00    +0.136 C 
ATOM     16 CL   UNL     1       2.906   1.260 -20.935  0.00  0.00    -0.115 Cl
ATOM     17  C   UNL     1       0.787   1.604 -21.318  0.00  0.00    +0.180 C 
ATOM     18  C   UNL     1      -0.122   2.005 -22.081  0.00  0.00    +0.149 C 
ATOM     19  C   UNL     1      -0.685   1.611 -21.032  0.00  0.00    +0.060 C 
ATOM     20  O   UNL     1      -1.605   2.218 -22.283  0.00  0.00    -0.478 OA
ATOM     21  C   UNL     1       0.755   3.377 -25.511  0.00  0.00    +0.094 C 
ATOM     22  C   UNL     1      -1.949   2.812 -23.621  0.00  0.00    +0.167 A 
ENDROOT
BRANCH   1  24
ATOM     23  C   UNL     1      -4.851   4.103 -24.313  0.00  0.00    +0.277 C 
ATOM     24  O   UNL     1      -4.067   3.167 -24.028  0.00  0.00    -0.491 OA
ENDBRANCH   1  24
BRANCH  17  25
ATOM     25  O   UNL     1       0.504   1.150 -20.184  0.00  0.00    -0.386 OA
ATOM     26  H   UNL     1      -0.443   0.943 -20.146  0.00  0.00    +0.210 HD
ENDBRANCH  17  25
TORSDOF 2
ENDMDL
MODEL 8
REMARK VINA RESULT:    -9.018      3.061      5.601
REMARK INTER + INTRA:          -9.951
REMARK INTER:                  -9.835
REMARK INTRA:                  -0.116
REMARK UNBOUND:                -0.142
REMARK  Name = COc1ccc2c3c1O[C@]1(C)[C@@H](O)[C@H](Cl)C=C4[C@@H](C2)N(C)CC[C@@]431  ZINC000100393468
REMARK  5 active torsions:
REMARK  status: ('A' for Active; 'I' for Inactive)
REMARK    1  A    between atoms: C_1  and  O_2
REMARK    2  A    between atoms: O_2  and  C_3
REMARK    3  A    between atoms: C_10  and  C_11
REMARK    4  A    between atoms: C_12  and  O_13
REMARK    5  A    between atoms: N_20  and  C_21
REMARK                            x       y       z     vdW  Elec       q    Type
REMARK                         _______ _______ _______ _____ _____    ______ ____
ROOT
ATOM      1  C   UNL     1      -1.861   3.823 -23.599  0.00  0.00    +0.162 A 
ATOM      2  C   UNL     1      -2.421   2.777 -23.155  0.00  0.00    +0.050 A 
ATOM      3  C   UNL     1      -1.744   1.878 -22.605  0.00  0.00    +0.008 A 
ATOM      4  C   UNL     1      -0.499   2.012 -22.492  0.00  0.00    -0.034 A 
ATOM      5  C   UNL     1       0.076   3.047 -22.928  0.00  0.00    +0.016 A 
ATOM      6  C   UNL     1       1.317   3.178 -22.814  0.00  0.00    +0.072 C 
ATOM      7  C   UNL     1       2.718   3.438 -22.742  0.00  0.00    +0.071 C 
ATOM      8  C   UNL     1       3.508   2.440 -22.127  0.00  0.00    +0.133 C 
ATOM      9  N   UNL     1       2.848   1.289 -21.644  0.00  0.00    +0.239 N 
ATOM     10  H   UNL     1       3.368   0.536 -21.190  0.00  0.00    +0.204 HD
ATOM     11  C   UNL     1       3.474   0.359 -21.086  0.00  0.00    +0.191 C 
ATOM     12  C   UNL     1       1.433   1.235 -21.821  0.00  0.00    +0.096 C 
ATOM     13  C   UNL     1       1.996   2.280 -22.265  0.00  0.00    -0.010 C 
ATOM     14  C   UNL     1       3.251   2.414 -22.151  0.00  0.00    +0.000 C 
ATOM     15  C   UNL     1       3.814   3.445 -22.587  0.00  0.00    +0.136 C 
ATOM     16 CL   UNL     1       5.054   3.574 -22.472  0.00  0.00    -0.115 Cl
ATOM     17  C   UNL     1       3.134   4.357 -23.144  0.00  0.00    +0.180 C 
ATOM     18  C   UNL     1       1.893   4.226 -23.257  0.00  0.00    +0.149 C 
ATOM     19  C   UNL     1       2.183   5.333 -23.771  0.00  0.00    +0.060 C 
ATOM     20  O   UNL     1       0.594   4.826 -23.747  0.00  0.00    -0.478 OA
ATOM     21  C   UNL     1       0.193   1.100 -21.933  0.00  0.00    +0.094 C 
ATOM     22  C   UNL     1      -0.605   3.957 -23.484  0.00  0.00    +0.167 A 
ENDROOT
BRANCH   1  24
ATOM     23  C   UNL     1      -3.628   4.433 -24.704  0.00  0.00    +0.277 C 
ATOM     24  O   UNL     1      -2.542   4.721 -24.148  0.00  0.00    -0.491 OA
ENDBRANCH   1  24
BRANCH  17  25
ATOM     25  O   UNL     1       3.701   5.388 -23.579  0.00  0.00    -0.386 OA
ATOM     26  H   UNL     1       4.441   5.132 -24.150  0.00  0.00    +0.210 HD
ENDBRANCH  17  25
TORSDOF 2
ENDMDL
MODEL 9
REMARK VINA RESULT:    -8.962      2.993      4.341
REMARK INTER + INTRA:          -9.891
REMARK INTER:                  -9.748
REMARK INTRA:                  -0.142
REMARK UNBOUND:                -0.142
REMARK  Name = COc1ccc2c3c1O[C@]1(C)[C@@H](O)[C@H](Cl)C=C4[C@@H](C2)N(C)CC[C@@]431  ZINC000100393468
REMARK  5 active torsions:
REMARK  status: ('A' for Active; 'I' for Inactive)
REMARK    1  A    between atoms: C_1  and  O_2
REMARK    2  A    between atoms: O_2  and  C_3
REMARK    3  A    between atoms: C_10  and  C_11
REMARK    4  A    between atoms: C_12  and  O_13
REMARK    5  A    between atoms: N_20  and  C_21
REMARK                            x       y       z     vdW  Elec       q    Type
REMARK                         _______ _______ _______ _____ _____    ______ ____
ROOT
ATOM      1  C   UNL     1       5.704   2.527 -22.420  0.00  0.00    +0.162 A 
ATOM      2  C   UNL     1       5.737   1.328 -22.012  0.00  0.00    +0.050 A 
ATOM      3  C   UNL     1       4.674   0.697 -21.808  0.00  0.00    +0.008 A 
ATOM      4  C   UNL     1       3.566   1.255 -22.008  0.00  0.00    -0.034 A 
ATOM      5  C   UNL     1       3.513   2.448 -22.414  0.00  0.00    +0.016 A 
ATOM      6  C   UNL     1       2.407   3.001 -22.613  0.00  0.00    +0.072 C 
ATOM      7  C   UNL     1       1.211   3.734 -22.874  0.00  0.00    +0.071 C 
ATOM      8  C   UNL     1      -0.004   3.047 -22.652  0.00  0.00    +0.133 C 
ATOM      9  N   UNL     1       0.073   1.712 -22.197  0.00  0.00    +0.239 N 
ATOM     10  H   UNL     1      -0.772   1.168 -22.020  0.00  0.00    +0.204 HD
ATOM     11  C   UNL     1      -0.956   1.033 -21.976  0.00  0.00    +0.191 C 
ATOM     12  C   UNL     1       1.380   1.173 -22.001  0.00  0.00    +0.096 C 
ATOM     13  C   UNL     1       1.343   2.372 -22.409  0.00  0.00    -0.010 C 
ATOM     14  C   UNL     1       0.225   2.933 -22.611  0.00  0.00    +0.000 C 
ATOM     15  C   UNL     1       0.182   4.119 -23.015  0.00  0.00    +0.136 C 
ATOM     16 CL   UNL     1      -0.924   4.670 -23.213  0.00  0.00    -0.115 Cl
ATOM     17  C   UNL     1       1.254   4.762 -23.223  0.00  0.00    +0.180 C 
ATOM     18  C   UNL     1       2.360   4.207 -23.024  0.00  0.00    +0.149 C 
ATOM     19  C   UNL     1       2.610   5.372 -23.418  0.00  0.00    +0.060 C 
ATOM     20  O   UNL     1       3.866   4.337 -23.054  0.00  0.00    -0.478 OA
ATOM     21  C   UNL     1       2.483   0.616 -21.801  0.00  0.00    +0.094 C 
ATOM     22  C   UNL     1       4.584   3.089 -22.622  0.00  0.00    +0.167 A 
ENDROOT
BRANCH   1  24
ATOM     23  C   UNL     1       7.140   4.039 -21.815  0.00  0.00    +0.277 C 
ATOM     24  O   UNL     1       6.769   3.156 -22.624  0.00  0.00    -0.491 OA
ENDBRANCH   1  24
BRANCH  17  25
ATOM     25  O   UNL     1       1.207   5.948 -23.627  0.00  0.00    -0.386 OA
ATOM     26  H   UNL     1       0.426   6.385 -23.255  0.00  0.00    +0.210 HD
ENDBRANCH  17  25
TORSDOF 2
ENDMDL
