MODEL 1
REMARK VINA RESULT:    -9.961      0.000      0.000
REMARK INTER + INTRA:          -7.120
REMARK INTER:                 -10.399
REMARK INTRA:                   3.278
REMARK UNBOUND:                 3.423
REMARK  Name = ZINC000071404291
REMARK  5 active torsions:
REMARK  status: ('A' for Active; 'I' for Inactive)
REMARK    1  A    between atoms: C_1  and  C_2
REMARK    2  A    between atoms: C_2  and  O_4
REMARK    3  A    between atoms: O_4  and  C_5
REMARK    4  A    between atoms: C_9  and  C_10
REMARK    5  A    between atoms: C_19  and  C_20
REMARK                            x       y       z     vdW  Elec       q    Type
REMARK                         _______ _______ _______ _____ _____    ______ ____
ROOT
ATOM      1  C   UNL     1      -3.438   3.218 -23.088  0.00  0.00    +0.276 C 
ATOM      2  C   UNL     1      -2.126   2.964 -22.825  0.00  0.00    +0.155 A 
ATOM      3  O   UNL     1      -1.395   2.738 -21.797  0.00  0.00    -0.463 OA
ATOM      4  C   UNL     1      -0.192   2.567 -22.203  0.00  0.00    +0.199 A 
ATOM      5  C   UNL     1      -0.179   2.686 -23.477  0.00  0.00    -0.005 A 
ATOM      6  C   UNL     1       0.844   2.580 -24.242  0.00  0.00    +0.047 C 
ATOM      7  C   UNL     1      -1.377   2.931 -23.859  0.00  0.00    +0.044 A 
ATOM      8  C   UNL     1      -1.930   3.133 -24.959  0.00  0.00    +0.234 C 
ATOM      9  C   UNL     1      -3.170   3.326 -24.717  0.00  0.00    +0.032 C 
ATOM     10  C   UNL     1      -3.763   3.535 -25.826  0.00  0.00    +0.037 C 
ATOM     11  C   UNL     1      -2.889   3.472 -26.768  0.00  0.00    +0.336 C 
ATOM     12  O   UNL     1      -3.113   3.630 -28.018  0.00  0.00    -0.245 OA
ATOM     13  C   UNL     1      -4.983   3.736 -25.707  0.00  0.00    +0.045 C 
ATOM     14  C   UNL     1      -5.745   3.751 -24.465  0.00  0.00    +0.039 C 
ATOM     15  C   UNL     1      -5.551   3.574 -22.959  0.00  0.00    +0.155 C 
ATOM     16  O   UNL     1      -5.629   3.466 -21.685  0.00  0.00    -0.361 OA
ATOM     17  O   UNL     1      -1.755   3.223 -26.228  0.00  0.00    -0.449 OA
ATOM     18  C   UNL     1      -4.497   3.325 -22.270  0.00  0.00    +0.137 C 
ATOM     19  C   UNL     1      -4.140   3.181 -21.413  0.00  0.00    +0.048 C 
ENDROOT
BRANCH   1  20
ATOM     20  O   UNL     1      -2.925   2.990 -21.635  0.00  0.00    -0.451 OA
BRANCH  20  22
ATOM     21  C   UNL     1      -3.085   3.717 -19.500  0.00  0.00    +0.136 C 
ATOM     22  C   UNL     1      -2.727   3.943 -20.725  0.00  0.00    +0.305 C 
ATOM     23  O   UNL     1      -2.195   5.071 -21.025  0.00  0.00    -0.251 OA
ENDBRANCH  20  22
ENDBRANCH   1  20
TORSDOF 2
ENDMDL
MODEL 2
REMARK VINA RESULT:    -9.579      1.412      4.159
REMARK INTER + INTRA:          -6.716
REMARK INTER:                  -9.968
REMARK INTRA:                   3.252
REMARK UNBOUND:                 3.423
REMARK  Name = ZINC000071404291
REMARK  5 active torsions:
REMARK  status: ('A' for Active; 'I' for Inactive)
REMARK    1  A    between atoms: C_1  and  C_2
REMARK    2  A    between atoms: C_2  and  O_4
REMARK    3  A    between atoms: O_4  and  C_5
REMARK    4  A    between atoms: C_9  and  C_10
REMARK    5  A    between atoms: C_19  and  C_20
REMARK                            x       y       z     vdW  Elec       q    Type
REMARK                         _______ _______ _______ _____ _____    ______ ____
ROOT
ATOM      1  C   UNL     1      -2.062   3.096 -24.224  0.00  0.00    +0.276 C 
ATOM      2  C   UNL     1      -0.978   2.628 -23.545  0.00  0.00    +0.155 A 
ATOM      3  O   UNL     1       0.264   2.415 -23.781  0.00  0.00    -0.463 OA
ATOM      4  C   UNL     1       0.790   1.950 -22.710  0.00  0.00    +0.199 A 
ATOM      5  C   UNL     1      -0.122   1.876 -21.815  0.00  0.00    -0.005 A 
ATOM      6  C   UNL     1       0.022   1.458 -20.612  0.00  0.00    +0.047 C 
ATOM      7  C   UNL     1      -1.215   2.295 -22.335  0.00  0.00    +0.044 A 
ATOM      8  C   UNL     1      -2.387   2.439 -21.934  0.00  0.00    +0.234 C 
ATOM      9  C   UNL     1      -3.057   2.909 -22.915  0.00  0.00    +0.032 C 
ATOM     10  C   UNL     1      -4.263   3.066 -22.534  0.00  0.00    +0.037 C 
ATOM     11  C   UNL     1      -4.349   2.693 -21.305  0.00  0.00    +0.336 C 
ATOM     12  O   UNL     1      -5.405   2.707 -20.583  0.00  0.00    -0.245 OA
ATOM     13  C   UNL     1      -5.009   3.522 -23.416  0.00  0.00    +0.045 C 
ATOM     14  C   UNL     1      -4.630   3.870 -24.780  0.00  0.00    +0.039 C 
ATOM     15  C   UNL     1      -3.409   3.880 -25.699  0.00  0.00    +0.155 C 
ATOM     16  O   UNL     1      -2.542   3.979 -26.636  0.00  0.00    -0.361 OA
ATOM     17  O   UNL     1      -3.185   2.305 -20.936  0.00  0.00    -0.449 OA
ATOM     18  C   UNL     1      -2.193   3.530 -25.487  0.00  0.00    +0.137 C 
ATOM     19  C   UNL     1      -1.330   3.446 -25.849  0.00  0.00    +0.048 C 
ENDROOT
BRANCH   1  20
ATOM     20  O   UNL     1      -0.662   2.986 -24.897  0.00  0.00    -0.451 OA
BRANCH  20  22
ATOM     21  C   UNL     1       1.180   3.875 -25.861  0.00  0.00    +0.136 C 
ATOM     22  C   UNL     1       0.240   3.965 -24.974  0.00  0.00    +0.305 C 
ATOM     23  O   UNL     1       0.204   4.987 -24.199  0.00  0.00    -0.251 OA
ENDBRANCH  20  22
ENDBRANCH   1  20
TORSDOF 2
ENDMDL
MODEL 3
REMARK VINA RESULT:    -9.396      1.539      4.528
REMARK INTER + INTRA:          -6.522
REMARK INTER:                  -9.716
REMARK INTRA:                   3.194
REMARK UNBOUND:                 3.423
REMARK  Name = ZINC000071404291
REMARK  5 active torsions:
REMARK  status: ('A' for Active; 'I' for Inactive)
REMARK    1  A    between atoms: C_1  and  C_2
REMARK    2  A    between atoms: C_2  and  O_4
REMARK    3  A    between atoms: O_4  and  C_5
REMARK    4  A    between atoms: C_9  and  C_10
REMARK    5  A    between atoms: C_19  and  C_20
REMARK                            x       y       z     vdW  Elec       q    Type
REMARK                         _______ _______ _______ _____ _____    ______ ____
ROOT
ATOM      1  C   UNL     1      -1.706   2.891 -23.280  0.00  0.00    +0.276 C 
ATOM      2  C   UNL     1      -1.882   3.158 -24.604  0.00  0.00    +0.155 A 
ATOM      3  O   UNL     1      -1.155   3.231 -25.657  0.00  0.00    -0.463 OA
ATOM      4  C   UNL     1      -1.920   3.531 -26.640  0.00  0.00    +0.199 A 
ATOM      5  C   UNL     1      -3.116   3.644 -26.196  0.00  0.00    -0.005 A 
ATOM      6  C   UNL     1      -4.159   3.935 -26.881  0.00  0.00    +0.047 C 
ATOM      7  C   UNL     1      -3.088   3.413 -24.936  0.00  0.00    +0.044 A 
ATOM      8  C   UNL     1      -3.939   3.385 -24.024  0.00  0.00    +0.234 C 
ATOM      9  C   UNL     1      -3.315   3.091 -22.948  0.00  0.00    +0.032 C 
ATOM     10  C   UNL     1      -4.161   3.056 -21.995  0.00  0.00    +0.037 C 
ATOM     11  C   UNL     1      -5.322   3.330 -22.478  0.00  0.00    +0.336 C 
ATOM     12  O   UNL     1      -6.419   3.388 -21.820  0.00  0.00    -0.245 OA
ATOM     13  C   UNL     1      -3.659   2.777 -20.894  0.00  0.00    +0.045 C 
ATOM     14  C   UNL     1      -2.253   2.501 -20.624  0.00  0.00    +0.039 C 
ATOM     15  C   UNL     1      -0.908   2.414 -21.345  0.00  0.00    +0.155 C 
ATOM     16  O   UNL     1       0.307   2.287 -21.728  0.00  0.00    -0.361 OA
ATOM     17  O   UNL     1      -5.181   3.534 -23.734  0.00  0.00    -0.449 OA
ATOM     18  C   UNL     1      -0.603   2.587 -22.580  0.00  0.00    +0.137 C 
ATOM     19  C   UNL     1       0.084   2.592 -23.221  0.00  0.00    +0.048 C 
ENDROOT
BRANCH   1  20
ATOM     20  O   UNL     1      -0.513   2.879 -24.281  0.00  0.00    -0.451 OA
BRANCH  20  22
ATOM     21  C   UNL     1       1.496   3.599 -25.029  0.00  0.00    +0.136 C 
ATOM     22  C   UNL     1       0.368   3.865 -24.449  0.00  0.00    +0.305 C 
ATOM     23  O   UNL     1       0.132   5.064 -24.055  0.00  0.00    -0.251 OA
ENDBRANCH  20  22
ENDBRANCH   1  20
TORSDOF 2
ENDMDL
MODEL 4
REMARK VINA RESULT:    -9.139      1.342      2.281
REMARK INTER + INTRA:          -6.250
REMARK INTER:                  -9.586
REMARK INTRA:                   3.337
REMARK UNBOUND:                 3.423
REMARK  Name = ZINC000071404291
REMARK  5 active torsions:
REMARK  status: ('A' for Active; 'I' for Inactive)
REMARK    1  A    between atoms: C_1  and  C_2
REMARK    2  A    between atoms: C_2  and  O_4
REMARK    3  A    between atoms: O_4  and  C_5
REMARK    4  A    between atoms: C_9  and  C_10
REMARK    5  A    between atoms: C_19  and  C_20
REMARK                            x       y       z     vdW  Elec       q    Type
REMARK                         _______ _______ _______ _____ _____    ______ ____
ROOT
ATOM      1  C   UNL     1      -2.123   3.221 -22.583  0.00  0.00    +0.276 C 
ATOM      2  C   UNL     1      -0.862   3.257 -23.096  0.00  0.00    +0.155 A 
ATOM      3  O   UNL     1       0.335   3.084 -22.672  0.00  0.00    -0.463 OA
ATOM      4  C   UNL     1       1.129   3.257 -23.663  0.00  0.00    +0.199 A 
ATOM      5  C   UNL     1       0.425   3.536 -24.695  0.00  0.00    -0.005 A 
ATOM      6  C   UNL     1       0.865   3.774 -25.875  0.00  0.00    +0.047 C 
ATOM      7  C   UNL     1      -0.805   3.534 -24.341  0.00  0.00    +0.044 A 
ATOM      8  C   UNL     1      -1.892   3.735 -24.920  0.00  0.00    +0.234 C 
ATOM      9  C   UNL     1      -2.809   3.595 -24.041  0.00  0.00    +0.032 C 
ATOM     10  C   UNL     1      -3.934   3.795 -24.606  0.00  0.00    +0.037 C 
ATOM     11  C   UNL     1      -3.720   4.062 -25.846  0.00  0.00    +0.336 C 
ATOM     12  O   UNL     1      -4.612   4.318 -26.728  0.00  0.00    -0.245 OA
ATOM     13  C   UNL     1      -4.903   3.683 -23.837  0.00  0.00    +0.045 C 
ATOM     14  C   UNL     1      -4.854   3.359 -22.417  0.00  0.00    +0.039 C 
ATOM     15  C   UNL     1      -3.844   3.045 -21.313  0.00  0.00    +0.155 C 
ATOM     16  O   UNL     1      -3.196   2.762 -20.245  0.00  0.00    -0.361 OA
ATOM     17  O   UNL     1      -2.455   4.024 -26.038  0.00  0.00    -0.449 OA
ATOM     18  C   UNL     1      -2.563   2.969 -21.341  0.00  0.00    +0.137 C 
ATOM     19  C   UNL     1      -1.779   2.807 -20.848  0.00  0.00    +0.048 C 
ENDROOT
BRANCH   1  20
ATOM     20  O   UNL     1      -0.872   2.941 -21.697  0.00  0.00    -0.451 OA
BRANCH  20  22
ATOM     21  C   UNL     1       0.492   1.610 -20.481  0.00  0.00    +0.136 C 
ATOM     22  C   UNL     1      -0.339   1.742 -21.467  0.00  0.00    +0.305 C 
ATOM     23  O   UNL     1      -0.624   0.720 -22.188  0.00  0.00    -0.251 OA
ENDBRANCH  20  22
ENDBRANCH   1  20
TORSDOF 2
ENDMDL
MODEL 5
REMARK VINA RESULT:    -9.102      1.677      5.534
REMARK INTER + INTRA:          -6.211
REMARK INTER:                  -9.448
REMARK INTRA:                   3.237
REMARK UNBOUND:                 3.423
REMARK  Name = ZINC000071404291
REMARK  5 active torsions:
REMARK  status: ('A' for Active; 'I' for Inactive)
REMARK    1  A    between atoms: C_1  and  C_2
REMARK    2  A    between atoms: C_2  and  O_4
REMARK    3  A    between atoms: O_4  and  C_5
REMARK    4  A    between atoms: C_9  and  C_10
REMARK    5  A    between atoms: C_19  and  C_20
REMARK                            x       y       z     vdW  Elec       q    Type
REMARK                         _______ _______ _______ _____ _____    ______ ____
ROOT
ATOM      1  C   UNL     1      -0.829   3.197 -23.868  0.00  0.00    +0.276 C 
ATOM      2  C   UNL     1      -2.050   3.252 -23.267  0.00  0.00    +0.155 A 
ATOM      3  O   UNL     1      -3.232   3.647 -23.565  0.00  0.00    -0.463 OA
ATOM      4  C   UNL     1      -3.984   3.431 -22.551  0.00  0.00    +0.199 A 
ATOM      5  C   UNL     1      -3.269   2.904 -21.628  0.00  0.00    -0.005 A 
ATOM      6  C   UNL     1      -3.669   2.547 -20.465  0.00  0.00    +0.047 C 
ATOM      7  C   UNL     1      -2.074   2.795 -22.075  0.00  0.00    +0.044 A 
ATOM      8  C   UNL     1      -0.996   2.363 -21.619  0.00  0.00    +0.234 C 
ATOM      9  C   UNL     1      -0.121   2.514 -22.538  0.00  0.00    +0.032 C 
ATOM     10  C   UNL     1       0.995   2.080 -22.099  0.00  0.00    +0.037 C 
ATOM     11  C   UNL     1       0.817   1.655 -20.897  0.00  0.00    +0.336 C 
ATOM     12  O   UNL     1       1.711   1.148 -20.135  0.00  0.00    -0.245 OA
ATOM     13  C   UNL     1       1.924   2.178 -22.918  0.00  0.00    +0.045 C 
ATOM     14  C   UNL     1       1.839   2.722 -24.267  0.00  0.00    +0.039 C 
ATOM     15  C   UNL     1       0.823   3.336 -25.231  0.00  0.00    +0.155 C 
ATOM     16  O   UNL     1       0.162   3.865 -26.191  0.00  0.00    -0.361 OA
ATOM     17  O   UNL     1      -0.417   1.832 -20.603  0.00  0.00    -0.449 OA
ATOM     18  C   UNL     1      -0.429   3.578 -25.091  0.00  0.00    +0.137 C 
ATOM     19  C   UNL     1      -1.209   3.917 -25.491  0.00  0.00    +0.048 C 
ENDROOT
BRANCH   1  20
ATOM     20  O   UNL     1      -2.075   3.776 -24.601  0.00  0.00    -0.451 OA
BRANCH  20  22
ATOM     21  C   UNL     1      -3.337   3.760 -26.478  0.00  0.00    +0.136 C 
ATOM     22  C   UNL     1      -2.840   3.115 -25.469  0.00  0.00    +0.305 C 
ATOM     23  O   UNL     1      -3.099   1.865 -25.335  0.00  0.00    -0.251 OA
ENDBRANCH  20  22
ENDBRANCH   1  20
TORSDOF 2
ENDMDL
MODEL 6
REMARK VINA RESULT:    -9.062      1.463      3.941
REMARK INTER + INTRA:          -6.169
REMARK INTER:                  -9.462
REMARK INTRA:                   3.293
REMARK UNBOUND:                 3.423
REMARK  Name = ZINC000071404291
REMARK  5 active torsions:
REMARK  status: ('A' for Active; 'I' for Inactive)
REMARK    1  A    between atoms: C_1  and  C_2
REMARK    2  A    between atoms: C_2  and  O_4
REMARK    3  A    between atoms: O_4  and  C_5
REMARK    4  A    between atoms: C_9  and  C_10
REMARK    5  A    between atoms: C_19  and  C_20
REMARK                            x       y       z     vdW  Elec       q    Type
REMARK                         _______ _______ _______ _____ _____    ______ ____
ROOT
ATOM      1  C   UNL     1      -1.327   2.453 -22.661  0.00  0.00    +0.276 C 
ATOM      2  C   UNL     1      -2.528   2.916 -23.105  0.00  0.00    +0.155 A 
ATOM      3  O   UNL     1      -3.753   2.877 -22.730  0.00  0.00    -0.463 OA
ATOM      4  C   UNL     1      -4.447   3.519 -23.594  0.00  0.00    +0.199 A 
ATOM      5  C   UNL     1      -3.655   3.954 -24.500  0.00  0.00    -0.005 A 
ATOM      6  C   UNL     1      -3.981   4.641 -25.532  0.00  0.00    +0.047 C 
ATOM      7  C   UNL     1      -2.469   3.579 -24.195  0.00  0.00    +0.044 A 
ATOM      8  C   UNL     1      -1.339   3.716 -24.707  0.00  0.00    +0.234 C 
ATOM      9  C   UNL     1      -0.513   3.114 -23.941  0.00  0.00    +0.032 C 
ATOM     10  C   UNL     1       0.654   3.238 -24.439  0.00  0.00    +0.037 C 
ATOM     11  C   UNL     1       0.557   3.923 -25.524  0.00  0.00    +0.336 C 
ATOM     12  O   UNL     1       1.521   4.249 -26.300  0.00  0.00    -0.245 OA
ATOM     13  C   UNL     1       1.542   2.685 -23.770  0.00  0.00    +0.045 C 
ATOM     14  C   UNL     1       1.362   1.947 -22.527  0.00  0.00    +0.039 C 
ATOM     15  C   UNL     1       0.260   1.521 -21.556  0.00  0.00    +0.155 C 
ATOM     16  O   UNL     1      -0.481   1.060 -20.619  0.00  0.00    -0.361 OA
ATOM     17  O   UNL     1      -0.679   4.218 -25.688  0.00  0.00    -0.449 OA
ATOM     18  C   UNL     1      -1.006   1.732 -21.575  0.00  0.00    +0.137 C 
ATOM     19  C   UNL     1      -1.828   1.594 -21.141  0.00  0.00    +0.048 C 
ENDROOT
BRANCH   1  20
ATOM     20  O   UNL     1      -2.647   2.179 -21.881  0.00  0.00    -0.451 OA
BRANCH  20  22
ATOM     21  C   UNL     1      -4.072   2.439 -20.144  0.00  0.00    +0.136 C 
ATOM     22  C   UNL     1      -3.131   2.927 -20.890  0.00  0.00    +0.305 C 
ATOM     23  O   UNL     1      -2.694   4.111 -20.654  0.00  0.00    -0.251 OA
ENDBRANCH  20  22
ENDBRANCH   1  20
TORSDOF 2
ENDMDL
MODEL 7
REMARK VINA RESULT:    -8.690      1.476      3.957
REMARK INTER + INTRA:          -5.775
REMARK INTER:                  -9.009
REMARK INTRA:                   3.234
REMARK UNBOUND:                 3.423
REMARK  Name = ZINC000071404291
REMARK  5 active torsions:
REMARK  status: ('A' for Active; 'I' for Inactive)
REMARK    1  A    between atoms: C_1  and  C_2
REMARK    2  A    between atoms: C_2  and  O_4
REMARK    3  A    between atoms: O_4  and  C_5
REMARK    4  A    between atoms: C_9  and  C_10
REMARK    5  A    between atoms: C_19  and  C_20
REMARK                            x       y       z     vdW  Elec       q    Type
REMARK                         _______ _______ _______ _____ _____    ______ ____
ROOT
ATOM      1  C   UNL     1      -1.013   3.076 -23.218  0.00  0.00    +0.276 C 
ATOM      2  C   UNL     1      -1.948   2.911 -22.242  0.00  0.00    +0.155 A 
ATOM      3  O   UNL     1      -1.968   2.641 -20.989  0.00  0.00    -0.463 OA
ATOM      4  C   UNL     1      -3.193   2.620 -20.614  0.00  0.00    +0.199 A 
ATOM      5  C   UNL     1      -3.928   2.876 -21.630  0.00  0.00    -0.005 A 
ATOM      6  C   UNL     1      -5.207   2.943 -21.649  0.00  0.00    +0.047 C 
ATOM      7  C   UNL     1      -3.154   3.055 -22.635  0.00  0.00    +0.044 A 
ATOM      8  C   UNL     1      -3.321   3.324 -23.842  0.00  0.00    +0.234 C 
ATOM      9  C   UNL     1      -2.159   3.381 -24.371  0.00  0.00    +0.032 C 
ATOM     10  C   UNL     1      -2.299   3.656 -25.608  0.00  0.00    +0.037 C 
ATOM     11  C   UNL     1      -3.556   3.771 -25.855  0.00  0.00    +0.336 C 
ATOM     12  O   UNL     1      -4.081   4.042 -26.991  0.00  0.00    -0.245 OA
ATOM     13  C   UNL     1      -1.223   3.736 -26.224  0.00  0.00    +0.045 C 
ATOM     14  C   UNL     1       0.112   3.551 -25.670  0.00  0.00    +0.039 C 
ATOM     15  C   UNL     1       0.806   3.230 -24.346  0.00  0.00    +0.155 C 
ATOM     16  O   UNL     1       1.594   2.980 -23.368  0.00  0.00    -0.361 OA
ATOM     17  O   UNL     1      -4.187   3.565 -24.760  0.00  0.00    -0.449 OA
ATOM     18  C   UNL     1       0.327   3.002 -23.178  0.00  0.00    +0.137 C 
ATOM     19  C   UNL     1       0.518   2.798 -22.281  0.00  0.00    +0.048 C 
ENDROOT
BRANCH   1  20
ATOM     20  O   UNL     1      -0.612   2.739 -21.751  0.00  0.00    -0.451 OA
BRANCH  20  22
ATOM     21  C   UNL     1       0.725   1.552 -20.367  0.00  0.00    +0.136 C 
ATOM     22  C   UNL     1      -0.149   1.565 -21.324  0.00  0.00    +0.305 C 
ATOM     23  O   UNL     1      -0.540   0.453 -21.831  0.00  0.00    -0.251 OA
ENDBRANCH  20  22
ENDBRANCH   1  20
TORSDOF 2
ENDMDL
MODEL 8
REMARK VINA RESULT:    -8.297      1.446      3.777
REMARK INTER + INTRA:          -5.359
REMARK INTER:                  -8.995
REMARK INTRA:                   3.637
REMARK UNBOUND:                 3.423
REMARK  Name = ZINC000071404291
REMARK  5 active torsions:
REMARK  status: ('A' for Active; 'I' for Inactive)
REMARK    1  A    between atoms: C_1  and  C_2
REMARK    2  A    between atoms: C_2  and  O_4
REMARK    3  A    between atoms: O_4  and  C_5
REMARK    4  A    between atoms: C_9  and  C_10
REMARK    5  A    between atoms: C_19  and  C_20
REMARK                            x       y       z     vdW  Elec       q    Type
REMARK                         _______ _______ _______ _____ _____    ______ ____
ROOT
ATOM      1  C   UNL     1      -2.307   2.740 -23.142  0.00  0.00    +0.276 C 
ATOM      2  C   UNL     1      -3.193   3.074 -24.121  0.00  0.00    +0.155 A 
ATOM      3  O   UNL     1      -4.465   3.133 -24.263  0.00  0.00    -0.463 OA
ATOM      4  C   UNL     1      -4.706   3.533 -25.456  0.00  0.00    +0.199 A 
ATOM      5  C   UNL     1      -3.588   3.720 -26.049  0.00  0.00    -0.005 A 
ATOM      6  C   UNL     1      -3.422   4.120 -27.255  0.00  0.00    +0.047 C 
ATOM      7  C   UNL     1      -2.654   3.436 -25.220  0.00  0.00    +0.044 A 
ATOM      8  C   UNL     1      -1.406   3.437 -25.259  0.00  0.00    +0.234 C 
ATOM      9  C   UNL     1      -1.002   3.051 -24.110  0.00  0.00    +0.032 C 
ATOM     10  C   UNL     1       0.273   3.042 -24.120  0.00  0.00    +0.037 C 
ATOM     11  C   UNL     1       0.669   3.426 -25.283  0.00  0.00    +0.336 C 
ATOM     12  O   UNL     1       1.884   3.542 -25.666  0.00  0.00    -0.245 OA
ATOM     13  C   UNL     1       0.776   2.680 -23.044  0.00  0.00    +0.045 C 
ATOM     14  C   UNL     1       0.059   2.285 -21.838  0.00  0.00    +0.039 C 
ATOM     15  C   UNL     1      -1.368   2.123 -21.313  0.00  0.00    +0.155 C 
ATOM     16  O   UNL     1      -2.453   1.917 -20.666  0.00  0.00    -0.361 OA
ATOM     17  O   UNL     1      -0.373   3.670 -25.986  0.00  0.00    -0.449 OA
ATOM     18  C   UNL     1      -2.501   2.322 -21.881  0.00  0.00    +0.137 C 
ATOM     19  C   UNL     1      -3.436   2.300 -21.789  0.00  0.00    +0.048 C 
ENDROOT
BRANCH   1  20
ATOM     20  O   UNL     1      -3.846   2.676 -22.908  0.00  0.00    -0.451 OA
BRANCH  20  22
ATOM     21  C   UNL     1      -5.742   3.111 -21.755  0.00  0.00    +0.136 C 
ATOM     22  C   UNL     1      -4.537   3.461 -22.081  0.00  0.00    +0.305 C 
ATOM     23  O   UNL     1      -4.047   4.545 -21.602  0.00  0.00    -0.251 OA
ENDBRANCH  20  22
ENDBRANCH   1  20
TORSDOF 2
ENDMDL
MODEL 9
REMARK VINA RESULT:    -8.230      2.600      5.464
REMARK INTER + INTRA:          -5.289
REMARK INTER:                  -8.712
REMARK INTRA:                   3.423
REMARK UNBOUND:                 3.423
REMARK  Name = ZINC000071404291
REMARK  5 active torsions:
REMARK  status: ('A' for Active; 'I' for Inactive)
REMARK    1  A    between atoms: C_1  and  C_2
REMARK    2  A    between atoms: C_2  and  O_4
REMARK    3  A    between atoms: O_4  and  C_5
REMARK    4  A    between atoms: C_9  and  C_10
REMARK    5  A    between atoms: C_19  and  C_20
REMARK                            x       y       z     vdW  Elec       q    Type
REMARK                         _______ _______ _______ _____ _____    ______ ____
ROOT
ATOM      1  C   UNL     1       1.028   2.881 -23.614  0.00  0.00    +0.276 C 
ATOM      2  C   UNL     1       1.811   2.384 -22.617  0.00  0.00    +0.155 A 
ATOM      3  O   UNL     1       3.062   2.211 -22.396  0.00  0.00    -0.463 OA
ATOM      4  C   UNL     1       3.183   1.678 -21.237  0.00  0.00    +0.199 A 
ATOM      5  C   UNL     1       2.013   1.522 -20.744  0.00  0.00    -0.005 A 
ATOM      6  C   UNL     1       1.728   1.019 -19.600  0.00  0.00    +0.047 C 
ATOM      7  C   UNL     1       1.166   1.959 -21.600  0.00  0.00    +0.044 A 
ATOM      8  C   UNL     1      -0.077   2.052 -21.646  0.00  0.00    +0.234 C 
ATOM      9  C   UNL     1      -0.365   2.580 -22.773  0.00  0.00    +0.032 C 
ATOM     10  C   UNL     1      -1.633   2.687 -22.849  0.00  0.00    +0.037 C 
ATOM     11  C   UNL     1      -2.142   2.223 -21.762  0.00  0.00    +0.336 C 
ATOM     12  O   UNL     1      -3.388   2.165 -21.476  0.00  0.00    -0.245 OA
ATOM     13  C   UNL     1      -2.027   3.193 -23.913  0.00  0.00    +0.045 C 
ATOM     14  C   UNL     1      -1.195   3.648 -25.020  0.00  0.00    +0.039 C 
ATOM     15  C   UNL     1       0.275   3.748 -25.427  0.00  0.00    +0.155 C 
ATOM     16  O   UNL     1       1.418   3.931 -25.975  0.00  0.00    -0.361 OA
ATOM     17  O   UNL     1      -1.176   1.830 -21.019  0.00  0.00    -0.449 OA
ATOM     18  C   UNL     1       1.345   3.405 -24.808  0.00  0.00    +0.137 C 
ATOM     19  C   UNL     1       2.284   3.363 -24.834  0.00  0.00    +0.048 C 
ENDROOT
BRANCH   1  20
ATOM     20  O   UNL     1       2.580   2.847 -23.735  0.00  0.00    -0.451 OA
BRANCH  20  22
ATOM     21  C   UNL     1       4.665   3.721 -23.681  0.00  0.00    +0.136 C 
ATOM     22  C   UNL     1       3.406   3.836 -23.394  0.00  0.00    +0.305 C 
ATOM     23  O   UNL     1       2.993   4.892 -22.794  0.00  0.00    -0.251 OA
ENDBRANCH  20  22
ENDBRANCH   1  20
TORSDOF 2
ENDMDL
