MODEL 1
REMARK VINA RESULT:   -10.756      0.000      0.000
REMARK INTER + INTRA:         -11.532
REMARK INTER:                 -11.391
REMARK INTRA:                  -0.141
REMARK UNBOUND:                -0.147
REMARK  Name = ZINC000096316248
REMARK  2 active torsions:
REMARK  status: ('A' for Active; 'I' for Inactive)
REMARK    1  A    between atoms: C_1  and  O_2
REMARK    2  A    between atoms: O_2  and  C_3
REMARK                            x       y       z     vdW  Elec       q    Type
REMARK                         _______ _______ _______ _____ _____    ______ ____
ROOT
ATOM      1  C   UNL     1      -4.123   3.964 -25.052  0.00  0.00    +0.120 A 
ATOM      2  C   UNL     1      -5.204   4.107 -24.411  0.00  0.00    +0.046 A 
ATOM      3  C   UNL     1      -5.248   3.751 -23.198  0.00  0.00    +0.008 A 
ATOM      4  C   UNL     1      -4.049   3.187 -22.579  0.00  0.00    -0.038 A 
ATOM      5  C   UNL     1      -3.176   3.093 -23.168  0.00  0.00    -0.033 A 
ATOM      6  C   UNL     1      -2.311   2.762 -22.969  0.00  0.00    +0.015 C 
ATOM      7  C   UNL     1      -3.798   3.389 -23.498  0.00  0.00    +0.063 C 
ATOM      8  C   UNL     1      -4.962   3.464 -22.548  0.00  0.00    +0.130 C 
ATOM      9  N   UNL     1      -4.804   3.072 -21.423  0.00  0.00    +0.230 N 
ATOM     10  H   UNL     1      -4.885   3.929 -20.877  0.00  0.00    +0.202 HD
ATOM     11  H   UNL     1      -5.493   2.334 -21.276  0.00  0.00    +0.202 HD
ATOM     12  C   UNL     1      -3.419   2.492 -20.943  0.00  0.00    +0.071 C 
ATOM     13  C   UNL     1      -1.270   2.659 -23.703  0.00  0.00    +0.086 C 
ATOM     14  C   UNL     1      -0.174   2.164 -23.205  0.00  0.00    +0.134 C 
ATOM     15  O   UNL     1       0.879   2.061 -23.948  0.00  0.00    -0.297 OA
ATOM     16  C   UNL     1      -0.129   1.765 -21.941  0.00  0.00    +0.075 C 
ATOM     17  C   UNL     1      -1.178   1.854 -21.156  0.00  0.00    +0.017 C 
ATOM     18  C   UNL     1      -2.265   2.332 -21.608  0.00  0.00    +0.049 C 
ATOM     19  C   UNL     1      -4.130   2.864 -21.433  0.00  0.00    +0.090 C 
ATOM     20  C   UNL     1      -3.099   3.458 -24.446  0.00  0.00    +0.050 A 
ENDROOT
BRANCH   1  22
ATOM     21  C   UNL     1      -3.289   3.600 -27.159  0.00  0.00    +0.277 C 
ATOM     22  O   UNL     1      -3.965   4.303 -26.326  0.00  0.00    -0.495 OA
ENDBRANCH   1  22
TORSDOF 1
ENDMDL
MODEL 2
REMARK VINA RESULT:   -10.497      0.855      3.911
REMARK INTER + INTRA:         -11.258
REMARK INTER:                 -11.123
REMARK INTRA:                  -0.135
REMARK UNBOUND:                -0.147
REMARK  Name = ZINC000096316248
REMARK  2 active torsions:
REMARK  status: ('A' for Active; 'I' for Inactive)
REMARK    1  A    between atoms: C_1  and  O_2
REMARK    2  A    between atoms: O_2  and  C_3
REMARK                            x       y       z     vdW  Elec       q    Type
REMARK                         _______ _______ _______ _____ _____    ______ ____
ROOT
ATOM      1  C   UNL     1      -0.340   2.161 -22.837  0.00  0.00    +0.120 A 
ATOM      2  C   UNL     1      -0.493   2.139 -21.581  0.00  0.00    +0.046 A 
ATOM      3  C   UNL     1      -1.606   2.489 -21.093  0.00  0.00    +0.008 A 
ATOM      4  C   UNL     1      -2.677   2.907 -21.997  0.00  0.00    -0.038 A 
ATOM      5  C   UNL     1      -2.488   2.904 -23.036  0.00  0.00    -0.033 A 
ATOM      6  C   UNL     1      -3.030   3.133 -23.779  0.00  0.00    +0.015 C 
ATOM      7  C   UNL     1      -1.924   2.685 -22.572  0.00  0.00    +0.063 C 
ATOM      8  C   UNL     1      -2.330   2.738 -21.124  0.00  0.00    +0.130 C 
ATOM      9  N   UNL     1      -3.444   3.102 -20.858  0.00  0.00    +0.230 N 
ATOM     10  H   UNL     1      -3.868   2.256 -20.478  0.00  0.00    +0.202 HD
ATOM     11  H   UNL     1      -3.344   3.913 -20.248  0.00  0.00    +0.202 HD
ATOM     12  C   UNL     1      -4.463   3.515 -21.988  0.00  0.00    +0.071 C 
ATOM     13  C   UNL     1      -2.774   3.119 -25.032  0.00  0.00    +0.086 C 
ATOM     14  C   UNL     1      -3.691   3.481 -25.882  0.00  0.00    +0.134 C 
ATOM     15  O   UNL     1      -3.432   3.468 -27.148  0.00  0.00    -0.297 OA
ATOM     16  C   UNL     1      -4.889   3.865 -25.459  0.00  0.00    +0.075 C 
ATOM     17  C   UNL     1      -5.188   3.891 -24.181  0.00  0.00    +0.017 C 
ATOM     18  C   UNL     1      -4.319   3.545 -23.322  0.00  0.00    +0.049 C 
ATOM     19  C   UNL     1      -3.713   3.231 -21.498  0.00  0.00    +0.090 C 
ATOM     20  C   UNL     1      -1.328   2.541 -23.580  0.00  0.00    +0.050 A 
ENDROOT
BRANCH   1  22
ATOM     21  C   UNL     1       1.336   2.536 -24.357  0.00  0.00    +0.277 C 
ATOM     22  O   UNL     1       0.782   1.814 -23.454  0.00  0.00    -0.495 OA
ENDBRANCH   1  22
TORSDOF 1
ENDMDL
MODEL 3
REMARK VINA RESULT:   -10.158      2.403      4.386
REMARK INTER + INTRA:         -10.899
REMARK INTER:                 -10.783
REMARK INTRA:                  -0.117
REMARK UNBOUND:                -0.147
REMARK  Name = ZINC000096316248
REMARK  2 active torsions:
REMARK  status: ('A' for Active; 'I' for Inactive)
REMARK    1  A    between atoms: C_1  and  O_2
REMARK    2  A    between atoms: O_2  and  C_3
REMARK                            x       y       z     vdW  Elec       q    Type
REMARK                         _______ _______ _______ _____ _____    ______ ____
ROOT
ATOM      1  C   UNL     1       0.463   4.009 -23.715  0.00  0.00    +0.120 A 
ATOM      2  C   UNL     1       0.403   3.911 -24.975  0.00  0.00    +0.046 A 
ATOM      3  C   UNL     1      -0.720   3.711 -25.521  0.00  0.00    +0.008 A 
ATOM      4  C   UNL     1      -1.909   3.600 -24.677  0.00  0.00    -0.038 A 
ATOM      5  C   UNL     1      -1.794   3.691 -23.631  0.00  0.00    -0.033 A 
ATOM      6  C   UNL     1      -2.419   3.651 -22.919  0.00  0.00    +0.015 C 
ATOM      7  C   UNL     1      -1.169   3.750 -24.064  0.00  0.00    +0.063 C 
ATOM      8  C   UNL     1      -1.478   3.602 -25.529  0.00  0.00    +0.130 C 
ATOM      9  N   UNL     1      -2.620   3.415 -25.853  0.00  0.00    +0.230 N 
ATOM     10  H   UNL     1      -2.850   4.273 -26.354  0.00  0.00    +0.202 HD
ATOM     11  H   UNL     1      -2.633   2.533 -26.366  0.00  0.00    +0.202 HD
ATOM     12  C   UNL     1      -3.773   3.325 -24.782  0.00  0.00    +0.071 C 
ATOM     13  C   UNL     1      -2.251   3.765 -21.657  0.00  0.00    +0.086 C 
ATOM     14  C   UNL     1      -3.275   3.674 -20.859  0.00  0.00    +0.134 C 
ATOM     15  O   UNL     1      -3.105   3.789 -19.582  0.00  0.00    -0.297 OA
ATOM     16  C   UNL     1      -4.492   3.465 -21.345  0.00  0.00    +0.075 C 
ATOM     17  C   UNL     1      -4.703   3.343 -22.635  0.00  0.00    +0.017 C 
ATOM     18  C   UNL     1      -3.728   3.426 -23.444  0.00  0.00    +0.049 C 
ATOM     19  C   UNL     1      -2.951   3.411 -25.230  0.00  0.00    +0.090 C 
ATOM     20  C   UNL     1      -0.626   3.901 -23.027  0.00  0.00    +0.050 A 
ENDROOT
BRANCH   1  22
ATOM     21  C   UNL     1       2.352   5.225 -23.249  0.00  0.00    +0.277 C 
ATOM     22  O   UNL     1       1.586   4.218 -23.039  0.00  0.00    -0.495 OA
ENDBRANCH   1  22
TORSDOF 1
ENDMDL
MODEL 4
REMARK VINA RESULT:    -9.853      2.258      5.095
REMARK INTER + INTRA:         -10.577
REMARK INTER:                 -10.459
REMARK INTRA:                  -0.118
REMARK UNBOUND:                -0.147
REMARK  Name = ZINC000096316248
REMARK  2 active torsions:
REMARK  status: ('A' for Active; 'I' for Inactive)
REMARK    1  A    between atoms: C_1  and  O_2
REMARK    2  A    between atoms: O_2  and  C_3
REMARK                            x       y       z     vdW  Elec       q    Type
REMARK                         _______ _______ _______ _____ _____    ______ ____
ROOT
ATOM      1  C   UNL     1       0.704   1.970 -22.227  0.00  0.00    +0.120 A 
ATOM      2  C   UNL     1       1.331   2.219 -23.297  0.00  0.00    +0.046 A 
ATOM      3  C   UNL     1       0.700   2.714 -24.275  0.00  0.00    +0.008 A 
ATOM      4  C   UNL     1      -0.731   2.980 -24.135  0.00  0.00    -0.038 A 
ATOM      5  C   UNL     1      -1.198   2.750 -23.216  0.00  0.00    -0.033 A 
ATOM      6  C   UNL     1      -2.094   2.841 -22.921  0.00  0.00    +0.015 C 
ATOM      7  C   UNL     1      -0.450   2.608 -23.281  0.00  0.00    +0.063 C 
ATOM      8  C   UNL     1       0.081   2.982 -24.637  0.00  0.00    +0.130 C 
ATOM      9  N   UNL     1      -0.684   3.443 -25.441  0.00  0.00    +0.230 N 
ATOM     10  H   UNL     1      -0.346   4.400 -25.544  0.00  0.00    +0.202 HD
ATOM     11  H   UNL     1      -0.655   2.826 -26.253  0.00  0.00    +0.202 HD
ATOM     12  C   UNL     1      -2.207   3.655 -25.096  0.00  0.00    +0.071 C 
ATOM     13  C   UNL     1      -2.633   2.553 -21.798  0.00  0.00    +0.086 C 
ATOM     14  C   UNL     1      -3.903   2.770 -21.618  0.00  0.00    +0.134 C 
ATOM     15  O   UNL     1      -4.449   2.479 -20.482  0.00  0.00    -0.297 OA
ATOM     16  C   UNL     1      -4.644   3.286 -22.590  0.00  0.00    +0.075 C 
ATOM     17  C   UNL     1      -4.125   3.594 -23.756  0.00  0.00    +0.017 C 
ATOM     18  C   UNL     1      -2.888   3.397 -23.968  0.00  0.00    +0.049 C 
ATOM     19  C   UNL     1      -1.291   3.447 -25.081  0.00  0.00    +0.090 C 
ATOM     20  C   UNL     1      -0.561   2.229 -22.169  0.00  0.00    +0.050 A 
ENDROOT
BRANCH   1  22
ATOM     21  C   UNL     1       2.530   1.478 -20.926  0.00  0.00    +0.277 C 
ATOM     22  O   UNL     1       1.266   1.452 -21.141  0.00  0.00    -0.495 OA
ENDBRANCH   1  22
TORSDOF 1
ENDMDL
MODEL 5
REMARK VINA RESULT:    -9.807      2.160      3.599
REMARK INTER + INTRA:         -10.527
REMARK INTER:                 -10.410
REMARK INTRA:                  -0.117
REMARK UNBOUND:                -0.147
REMARK  Name = ZINC000096316248
REMARK  2 active torsions:
REMARK  status: ('A' for Active; 'I' for Inactive)
REMARK    1  A    between atoms: C_1  and  O_2
REMARK    2  A    between atoms: O_2  and  C_3
REMARK                            x       y       z     vdW  Elec       q    Type
REMARK                         _______ _______ _______ _____ _____    ______ ____
ROOT
ATOM      1  C   UNL     1      -3.415   3.359 -22.858  0.00  0.00    +0.120 A 
ATOM      2  C   UNL     1      -3.633   3.803 -24.022  0.00  0.00    +0.046 A 
ATOM      3  C   UNL     1      -2.688   3.808 -24.863  0.00  0.00    +0.008 A 
ATOM      4  C   UNL     1      -1.377   3.300 -24.459  0.00  0.00    -0.038 A 
ATOM      5  C   UNL     1      -1.258   2.943 -23.472  0.00  0.00    -0.033 A 
ATOM      6  C   UNL     1      -0.511   2.579 -23.016  0.00  0.00    +0.015 C 
ATOM      7  C   UNL     1      -1.945   3.206 -23.674  0.00  0.00    +0.063 C 
ATOM      8  C   UNL     1      -1.971   3.681 -25.102  0.00  0.00    +0.130 C 
ATOM      9  N   UNL     1      -0.960   3.603 -25.746  0.00  0.00    +0.230 N 
ATOM     10  H   UNL     1      -1.200   2.904 -26.449  0.00  0.00    +0.202 HD
ATOM     11  H   UNL     1      -0.741   4.550 -26.056  0.00  0.00    +0.202 HD
ATOM     12  C   UNL     1       0.366   3.019 -25.124  0.00  0.00    +0.071 C 
ATOM     13  C   UNL     1      -0.395   2.153 -21.817  0.00  0.00    +0.086 C 
ATOM     14  C   UNL     1       0.749   1.690 -21.404  0.00  0.00    +0.134 C 
ATOM     15  O   UNL     1       0.866   1.259 -20.191  0.00  0.00    -0.297 OA
ATOM     16  C   UNL     1       1.796   1.657 -22.218  0.00  0.00    +0.075 C 
ATOM     17  C   UNL     1       1.715   2.086 -23.456  0.00  0.00    +0.017 C 
ATOM     18  C   UNL     1       0.615   2.545 -23.894  0.00  0.00    +0.049 C 
ATOM     19  C   UNL     1      -0.511   3.322 -25.281  0.00  0.00    +0.090 C 
ATOM     20  C   UNL     1      -2.233   2.925 -22.565  0.00  0.00    +0.050 A 
ENDROOT
BRANCH   1  22
ATOM     21  C   UNL     1      -5.591   3.253 -22.137  0.00  0.00    +0.277 C 
ATOM     22  O   UNL     1      -4.332   3.308 -21.900  0.00  0.00    -0.495 OA
ENDBRANCH   1  22
TORSDOF 1
ENDMDL
MODEL 6
REMARK VINA RESULT:    -9.347      2.803      5.878
REMARK INTER + INTRA:         -10.041
REMARK INTER:                  -9.923
REMARK INTRA:                  -0.118
REMARK UNBOUND:                -0.147
REMARK  Name = ZINC000096316248
REMARK  2 active torsions:
REMARK  status: ('A' for Active; 'I' for Inactive)
REMARK    1  A    between atoms: C_1  and  O_2
REMARK    2  A    between atoms: O_2  and  C_3
REMARK                            x       y       z     vdW  Elec       q    Type
REMARK                         _______ _______ _______ _____ _____    ______ ____
ROOT
ATOM      1  C   UNL     1       2.110   1.384 -22.423  0.00  0.00    +0.120 A 
ATOM      2  C   UNL     1       2.751   1.463 -23.512  0.00  0.00    +0.046 A 
ATOM      3  C   UNL     1       2.230   2.077 -24.487  0.00  0.00    +0.008 A 
ATOM      4  C   UNL     1       0.905   2.674 -24.323  0.00  0.00    -0.038 A 
ATOM      5  C   UNL     1       0.420   2.575 -23.389  0.00  0.00    -0.033 A 
ATOM      6  C   UNL     1      -0.421   2.879 -23.078  0.00  0.00    +0.015 C 
ATOM      7  C   UNL     1       1.112   2.260 -23.466  0.00  0.00    +0.063 C 
ATOM      8  C   UNL     1       1.682   2.478 -24.841  0.00  0.00    +0.130 C 
ATOM      9  N   UNL     1       1.027   3.094 -25.639  0.00  0.00    +0.230 N 
ATOM     10  H   UNL     1       1.578   3.942 -25.768  0.00  0.00    +0.202 HD
ATOM     11  H   UNL     1       0.890   2.475 -26.438  0.00  0.00    +0.202 HD
ATOM     12  C   UNL     1      -0.395   3.663 -25.266  0.00  0.00    +0.071 C 
ATOM     13  C   UNL     1      -0.985   2.743 -21.938  0.00  0.00    +0.086 C 
ATOM     14  C   UNL     1      -2.164   3.255 -21.737  0.00  0.00    +0.134 C 
ATOM     15  O   UNL     1      -2.735   3.118 -20.584  0.00  0.00    -0.297 OA
ATOM     16  C   UNL     1      -2.787   3.916 -22.704  0.00  0.00    +0.075 C 
ATOM     17  C   UNL     1      -2.239   4.076 -23.887  0.00  0.00    +0.017 C 
ATOM     18  C   UNL     1      -1.089   3.590 -24.120  0.00  0.00    +0.049 C 
ATOM     19  C   UNL     1       0.447   3.246 -25.266  0.00  0.00    +0.090 C 
ATOM     20  C   UNL     1       0.943   1.935 -22.345  0.00  0.00    +0.050 A 
ENDROOT
BRANCH   1  22
ATOM     21  C   UNL     1       3.787   0.424 -21.187  0.00  0.00    +0.277 C 
ATOM     22  O   UNL     1       2.561   0.766 -21.339  0.00  0.00    -0.495 OA
ENDBRANCH   1  22
TORSDOF 1
ENDMDL
MODEL 7
REMARK VINA RESULT:    -9.336      1.761      3.592
REMARK INTER + INTRA:         -10.029
REMARK INTER:                  -9.885
REMARK INTRA:                  -0.144
REMARK UNBOUND:                -0.147
REMARK  Name = ZINC000096316248
REMARK  2 active torsions:
REMARK  status: ('A' for Active; 'I' for Inactive)
REMARK    1  A    between atoms: C_1  and  O_2
REMARK    2  A    between atoms: O_2  and  C_3
REMARK                            x       y       z     vdW  Elec       q    Type
REMARK                         _______ _______ _______ _____ _____    ______ ____
ROOT
ATOM      1  C   UNL     1      -1.902   3.474 -25.612  0.00  0.00    +0.120 A 
ATOM      2  C   UNL     1      -0.658   3.292 -25.460  0.00  0.00    +0.046 A 
ATOM      3  C   UNL     1      -0.217   3.009 -24.309  0.00  0.00    +0.008 A 
ATOM      4  C   UNL     1      -1.159   2.901 -23.195  0.00  0.00    -0.038 A 
ATOM      5  C   UNL     1      -2.185   3.064 -23.386  0.00  0.00    -0.033 A 
ATOM      6  C   UNL     1      -2.945   3.044 -22.820  0.00  0.00    +0.015 C 
ATOM      7  C   UNL     1      -1.700   3.122 -23.973  0.00  0.00    +0.063 C 
ATOM      8  C   UNL     1      -0.277   2.867 -23.559  0.00  0.00    +0.130 C 
ATOM      9  N   UNL     1      -0.057   2.610 -22.406  0.00  0.00    +0.230 N 
ATOM     10  H   UNL     1       0.259   1.641 -22.452  0.00  0.00    +0.202 HD
ATOM     11  H   UNL     1       0.596   3.319 -22.072  0.00  0.00    +0.202 HD
ATOM     12  C   UNL     1      -1.221   2.539 -21.344  0.00  0.00    +0.071 C 
ATOM     13  C   UNL     1      -4.180   3.246 -23.080  0.00  0.00    +0.086 C 
ATOM     14  C   UNL     1      -5.062   3.163 -22.126  0.00  0.00    +0.134 C 
ATOM     15  O   UNL     1      -6.312   3.367 -22.388  0.00  0.00    -0.297 OA
ATOM     16  C   UNL     1      -4.689   2.870 -20.887  0.00  0.00    +0.075 C 
ATOM     17  C   UNL     1      -3.430   2.656 -20.583  0.00  0.00    +0.017 C 
ATOM     18  C   UNL     1      -2.541   2.729 -21.487  0.00  0.00    +0.049 C 
ATOM     19  C   UNL     1      -0.703   2.632 -22.124  0.00  0.00    +0.090 C 
ATOM     20  C   UNL     1      -2.679   3.364 -24.586  0.00  0.00    +0.050 A 
ENDROOT
BRANCH   1  22
ATOM     21  C   UNL     1      -3.656   3.402 -27.089  0.00  0.00    +0.277 C 
ATOM     22  O   UNL     1      -2.471   3.775 -26.773  0.00  0.00    -0.495 OA
ENDBRANCH   1  22
TORSDOF 1
ENDMDL
MODEL 8
REMARK VINA RESULT:    -8.673      3.262      6.137
REMARK INTER + INTRA:          -9.328
REMARK INTER:                  -9.179
REMARK INTRA:                  -0.148
REMARK UNBOUND:                -0.147
REMARK  Name = ZINC000096316248
REMARK  2 active torsions:
REMARK  status: ('A' for Active; 'I' for Inactive)
REMARK    1  A    between atoms: C_1  and  O_2
REMARK    2  A    between atoms: O_2  and  C_3
REMARK                            x       y       z     vdW  Elec       q    Type
REMARK                         _______ _______ _______ _____ _____    ______ ____
ROOT
ATOM      1  C   UNL     1       3.931   2.308 -22.070  0.00  0.00    +0.120 A 
ATOM      2  C   UNL     1       3.649   1.683 -21.006  0.00  0.00    +0.046 A 
ATOM      3  C   UNL     1       2.439   1.414 -20.755  0.00  0.00    +0.008 A 
ATOM      4  C   UNL     1       1.408   1.834 -21.704  0.00  0.00    -0.038 A 
ATOM      5  C   UNL     1       1.706   2.353 -22.575  0.00  0.00    -0.033 A 
ATOM      6  C   UNL     1       1.212   2.706 -23.302  0.00  0.00    +0.015 C 
ATOM      7  C   UNL     1       2.251   2.137 -22.085  0.00  0.00    +0.063 C 
ATOM      8  C   UNL     1       1.686   1.412 -20.894  0.00  0.00    +0.130 C 
ATOM      9  N   UNL     1       0.496   1.253 -20.837  0.00  0.00    +0.230 N 
ATOM     10  H   UNL     1       0.404   0.241 -20.928  0.00  0.00    +0.202 HD
ATOM     11  H   UNL     1       0.188   1.694 -19.970  0.00  0.00    +0.202 HD
ATOM     12  C   UNL     1      -0.459   1.786 -21.973  0.00  0.00    +0.071 C 
ATOM     13  C   UNL     1       1.601   3.332 -24.346  0.00  0.00    +0.086 C 
ATOM     14  C   UNL     1       0.726   3.729 -25.224  0.00  0.00    +0.134 C 
ATOM     15  O   UNL     1       1.120   4.362 -26.281  0.00  0.00    -0.297 OA
ATOM     16  C   UNL     1      -0.566   3.490 -25.044  0.00  0.00    +0.075 C 
ATOM     17  C   UNL     1      -1.003   2.851 -23.983  0.00  0.00    +0.017 C 
ATOM     18  C   UNL     1      -0.179   2.448 -23.105  0.00  0.00    +0.049 C 
ATOM     19  C   UNL     1       0.277   1.562 -21.432  0.00  0.00    +0.090 C 
ATOM     20  C   UNL     1       2.971   2.650 -22.866  0.00  0.00    +0.050 A 
ENDROOT
BRANCH   1  22
ATOM     21  C   UNL     1       5.436   3.225 -23.539  0.00  0.00    +0.277 C 
ATOM     22  O   UNL     1       5.164   2.641 -22.430  0.00  0.00    -0.495 OA
ENDBRANCH   1  22
TORSDOF 1
ENDMDL
MODEL 9
REMARK VINA RESULT:    -8.471      4.918      7.650
REMARK INTER + INTRA:          -9.113
REMARK INTER:                  -8.966
REMARK INTRA:                  -0.147
REMARK UNBOUND:                -0.147
REMARK  Name = ZINC000096316248
REMARK  2 active torsions:
REMARK  status: ('A' for Active; 'I' for Inactive)
REMARK    1  A    between atoms: C_1  and  O_2
REMARK    2  A    between atoms: O_2  and  C_3
REMARK                            x       y       z     vdW  Elec       q    Type
REMARK                         _______ _______ _______ _____ _____    ______ ____
ROOT
ATOM      1  C   UNL     1       4.832   5.481 -22.606  0.00  0.00    +0.120 A 
ATOM      2  C   UNL     1       5.752   4.643 -22.838  0.00  0.00    +0.046 A 
ATOM      3  C   UNL     1       5.446   3.520 -23.334  0.00  0.00    +0.008 A 
ATOM      4  C   UNL     1       4.042   3.230 -23.621  0.00  0.00    -0.038 A 
ATOM      5  C   UNL     1       3.320   3.971 -23.404  0.00  0.00    -0.033 A 
ATOM      6  C   UNL     1       2.379   3.987 -23.510  0.00  0.00    +0.015 C 
ATOM      7  C   UNL     1       4.051   4.130 -23.252  0.00  0.00    +0.063 C 
ATOM      8  C   UNL     1       4.966   2.990 -23.608  0.00  0.00    +0.130 C 
ATOM      9  N   UNL     1       4.480   1.994 -24.073  0.00  0.00    +0.230 N 
ATOM     10  H   UNL     1       4.848   1.993 -25.024  0.00  0.00    +0.202 HD
ATOM     11  H   UNL     1       4.738   1.229 -23.449  0.00  0.00    +0.202 HD
ATOM     12  C   UNL     1       2.925   1.873 -24.309  0.00  0.00    +0.071 C 
ATOM     13  C   UNL     1       1.527   4.901 -23.239  0.00  0.00    +0.086 C 
ATOM     14  C   UNL     1       0.264   4.697 -23.474  0.00  0.00    +0.134 C 
ATOM     15  O   UNL     1      -0.598   5.621 -23.200  0.00  0.00    -0.297 OA
ATOM     16  C   UNL     1      -0.148   3.547 -23.993  0.00  0.00    +0.075 C 
ATOM     17  C   UNL     1       0.697   2.585 -24.285  0.00  0.00    +0.017 C 
ATOM     18  C   UNL     1       1.938   2.749 -24.069  0.00  0.00    +0.049 C 
ATOM     19  C   UNL     1       3.794   2.159 -24.088  0.00  0.00    +0.090 C 
ATOM     20  C   UNL     1       3.611   5.161 -22.883  0.00  0.00    +0.050 A 
ENDROOT
BRANCH   1  22
ATOM     21  C   UNL     1       4.137   7.596 -22.050  0.00  0.00    +0.277 C 
ATOM     22  O   UNL     1       5.039   6.686 -22.089  0.00  0.00    -0.495 OA
ENDBRANCH   1  22
TORSDOF 1
ENDMDL
