MODEL 1
REMARK VINA RESULT:    -9.827      0.000      0.000
REMARK INTER + INTRA:         -11.186
REMARK INTER:                 -12.111
REMARK INTRA:                   0.925
REMARK UNBOUND:                 0.939
REMARK  Name = ZINC000014611785
REMARK  7 active torsions:
REMARK  status: ('A' for Active; 'I' for Inactive)
REMARK    1  A    between atoms: C_1  and  O_2
REMARK    2  A    between atoms: O_2  and  C_3
REMARK    3  A    between atoms: C_7  and  O_8
REMARK    4  A    between atoms: C_9  and  O_10
REMARK    5  A    between atoms: O_10  and  C_11
REMARK    6  A    between atoms: C_16  and  O_17
REMARK    7  A    between atoms: C_23  and  O_24
REMARK                            x       y       z     vdW  Elec       q    Type
REMARK                         _______ _______ _______ _____ _____    ______ ____
ROOT
ATOM      1  C   UNL     1      -3.600   3.068 -22.136  0.00  0.00    +0.173 A 
ATOM      2  C   UNL     1      -2.609   3.039 -22.875  0.00  0.00    +0.031 A 
ATOM      3  C   UNL     1      -2.686   3.453 -24.032  0.00  0.00    +0.019 A 
ATOM      4  C   UNL     1      -3.751   3.898 -24.458  0.00  0.00    -0.001 A 
ATOM      5  C   UNL     1      -3.276   4.149 -25.594  0.00  0.00    +0.039 C 
ATOM      6  C   UNL     1      -1.714   3.623 -25.344  0.00  0.00    +0.005 C 
ATOM      7  C   UNL     1      -0.382   3.520 -26.150  0.00  0.00    +0.003 C 
ATOM      8  C   UNL     1       2.061   2.595 -25.457  0.00  0.00    +0.031 C 
ATOM      9  C   UNL     1       2.735   2.016 -24.310  0.00  0.00    +0.115 C 
ATOM     10  C   UNL     1       2.201   1.872 -23.441  0.00  0.00    +0.036 C 
ATOM     11  C   UNL     1       1.266   2.207 -23.649  0.00  0.00    +0.037 C 
ATOM     12  C   UNL     1       0.550   2.181 -22.977  0.00  0.00    -0.046 A 
ATOM     13  C   UNL     1       0.691   1.749 -21.821  0.00  0.00    +0.007 A 
ATOM     14  C   UNL     1      -0.267   1.756 -21.043  0.00  0.00    +0.046 A 
ATOM     15  C   UNL     1      -1.365   2.191 -21.413  0.00  0.00    +0.125 A 
ATOM     16  C   UNL     1      -0.548   2.615 -23.342  0.00  0.00    +0.016 A 
ATOM     17  C   UNL     1      -4.751   3.932 -23.726  0.00  0.00    +0.165 A 
ATOM     18  C   UNL     1      -1.505   2.621 -22.563  0.00  0.00    +0.027 A 
ATOM     19  C   UNL     1      -4.671   3.515 -22.562  0.00  0.00    +0.204 A 
ENDROOT
BRANCH   1  21
ATOM     20  C   UNL     1      -3.267   3.406 -20.048  0.00  0.00    +0.277 C 
ATOM     21  O   UNL     1      -3.485   2.643 -20.979  0.00  0.00    -0.491 OA
ENDBRANCH   1  21
BRANCH  15  22
ATOM     22  O   UNL     1      -2.322   2.197 -20.632  0.00  0.00    -0.506 OA
ATOM     23  H   UNL     1      -2.330   1.617 -19.896  0.00  0.00    +0.292 HD
ENDBRANCH  15  22
BRANCH   9  24
ATOM     24  O   UNL     1       3.969   1.671 -24.319  0.00  0.00    -0.392 OA
ATOM     25  H   UNL     1       4.367   1.870 -23.457  0.00  0.00    +0.210 HD
ENDBRANCH   9  24
BRANCH  17  26
ATOM     26  O   UNL     1      -5.827   4.376 -24.140  0.00  0.00    -0.503 OA
ATOM     27  H   UNL     1      -5.851   4.884 -24.927  0.00  0.00    +0.292 HD
ENDBRANCH  17  26
BRANCH  19  28
ATOM     28  O   UNL     1      -5.647   3.530 -21.796  0.00  0.00    -0.488 OA
ATOM     29  C   UNL     1      -6.450   2.607 -21.780  0.00  0.00    +0.277 C 
ENDBRANCH  19  28
TORSDOF 5
ENDMDL
MODEL 2
REMARK VINA RESULT:    -9.556      1.612      6.681
REMARK INTER + INTRA:         -10.852
REMARK INTER:                 -11.777
REMARK INTRA:                   0.925
REMARK UNBOUND:                 0.939
REMARK  Name = ZINC000014611785
REMARK  7 active torsions:
REMARK  status: ('A' for Active; 'I' for Inactive)
REMARK    1  A    between atoms: C_1  and  O_2
REMARK    2  A    between atoms: O_2  and  C_3
REMARK    3  A    between atoms: C_7  and  O_8
REMARK    4  A    between atoms: C_9  and  O_10
REMARK    5  A    between atoms: O_10  and  C_11
REMARK    6  A    between atoms: C_16  and  O_17
REMARK    7  A    between atoms: C_23  and  O_24
REMARK                            x       y       z     vdW  Elec       q    Type
REMARK                         _______ _______ _______ _____ _____    ______ ____
ROOT
ATOM      1  C   UNL     1       1.691   2.342 -23.952  0.00  0.00    +0.173 A 
ATOM      2  C   UNL     1       0.555   2.454 -23.479  0.00  0.00    +0.031 A 
ATOM      3  C   UNL     1       0.333   2.126 -22.313  0.00  0.00    +0.019 A 
ATOM      4  C   UNL     1       1.244   1.685 -21.612  0.00  0.00    -0.001 A 
ATOM      5  C   UNL     1       0.500   1.533 -20.612  0.00  0.00    +0.039 C 
ATOM      6  C   UNL     1      -0.931   2.081 -21.268  0.00  0.00    +0.005 C 
ATOM      7  C   UNL     1      -2.412   2.280 -20.817  0.00  0.00    +0.003 C 
ATOM      8  C   UNL     1      -4.575   3.216 -22.141  0.00  0.00    +0.031 C 
ATOM      9  C   UNL     1      -4.927   3.725 -23.454  0.00  0.00    +0.115 C 
ATOM     10  C   UNL     1      -4.195   3.789 -24.175  0.00  0.00    +0.036 C 
ATOM     11  C   UNL     1      -3.353   3.446 -23.724  0.00  0.00    +0.037 C 
ATOM     12  C   UNL     1      -2.496   3.401 -24.203  0.00  0.00    -0.046 A 
ATOM     13  C   UNL     1      -2.336   3.749 -25.385  0.00  0.00    +0.007 A 
ATOM     14  C   UNL     1      -1.221   3.658 -25.905  0.00  0.00    +0.046 A 
ATOM     15  C   UNL     1      -0.264   3.222 -25.252  0.00  0.00    +0.125 A 
ATOM     16  C   UNL     1      -1.538   2.967 -23.555  0.00  0.00    +0.016 A 
ATOM     17  C   UNL     1       2.388   1.569 -22.077  0.00  0.00    +0.165 A 
ATOM     18  C   UNL     1      -0.423   2.876 -24.076  0.00  0.00    +0.027 A 
ATOM     19  C   UNL     1       2.608   1.900 -23.250  0.00  0.00    +0.204 A 
ENDROOT
BRANCH   1  21
ATOM     20  C   UNL     1       1.919   1.849 -26.023  0.00  0.00    +0.277 C 
ATOM     21  O   UNL     1       1.876   2.682 -25.128  0.00  0.00    -0.491 OA
ENDBRANCH   1  21
BRANCH  15  22
ATOM     22  O   UNL     1       0.852   3.132 -25.775  0.00  0.00    -0.506 OA
ATOM     23  H   UNL     1       0.931   3.104 -26.708  0.00  0.00    +0.292 HD
ENDBRANCH  15  22
BRANCH   9  24
ATOM     24  O   UNL     1      -6.111   4.103 -23.767  0.00  0.00    -0.392 OA
ATOM     25  H   UNL     1      -6.398   3.637 -24.568  0.00  0.00    +0.210 HD
ENDBRANCH   9  24
BRANCH  17  26
ATOM     26  O   UNL     1       3.312   1.128 -21.385  0.00  0.00    -0.503 OA
ATOM     27  H   UNL     1       3.356   1.340 -20.474  0.00  0.00    +0.292 HD
ENDBRANCH  17  26
BRANCH  19  28
ATOM     28  O   UNL     1       3.737   1.800 -23.754  0.00  0.00    -0.488 OA
ATOM     29  C   UNL     1       4.556   2.704 -23.648  0.00  0.00    +0.277 C 
ENDBRANCH  19  28
TORSDOF 5
ENDMDL
MODEL 3
REMARK VINA RESULT:    -9.398      1.426      6.000
REMARK INTER + INTRA:         -10.657
REMARK INTER:                 -11.888
REMARK INTRA:                   1.231
REMARK UNBOUND:                 0.939
REMARK  Name = ZINC000014611785
REMARK  7 active torsions:
REMARK  status: ('A' for Active; 'I' for Inactive)
REMARK    1  A    between atoms: C_1  and  O_2
REMARK    2  A    between atoms: O_2  and  C_3
REMARK    3  A    between atoms: C_7  and  O_8
REMARK    4  A    between atoms: C_9  and  O_10
REMARK    5  A    between atoms: O_10  and  C_11
REMARK    6  A    between atoms: C_16  and  O_17
REMARK    7  A    between atoms: C_23  and  O_24
REMARK                            x       y       z     vdW  Elec       q    Type
REMARK                         _______ _______ _______ _____ _____    ______ ____
ROOT
ATOM      1  C   UNL     1       1.882   1.432 -22.429  0.00  0.00    +0.173 A 
ATOM      2  C   UNL     1       0.910   1.951 -22.988  0.00  0.00    +0.031 A 
ATOM      3  C   UNL     1       1.017   2.397 -24.131  0.00  0.00    +0.019 A 
ATOM      4  C   UNL     1       2.094   2.327 -24.722  0.00  0.00    -0.001 A 
ATOM      5  C   UNL     1       1.649   2.888 -25.753  0.00  0.00    +0.039 C 
ATOM      6  C   UNL     1       0.079   3.141 -25.253  0.00  0.00    +0.005 C 
ATOM      7  C   UNL     1      -1.234   3.764 -25.823  0.00  0.00    +0.003 C 
ATOM      8  C   UNL     1      -3.698   4.037 -24.746  0.00  0.00    +0.031 C 
ATOM      9  C   UNL     1      -4.403   3.730 -23.516  0.00  0.00    +0.115 C 
ATOM     10  C   UNL     1      -3.891   3.262 -22.754  0.00  0.00    +0.036 C 
ATOM     11  C   UNL     1      -2.950   3.135 -23.111  0.00  0.00    +0.037 C 
ATOM     12  C   UNL     1      -2.250   2.704 -22.572  0.00  0.00    -0.046 A 
ATOM     13  C   UNL     1      -2.422   2.273 -21.419  0.00  0.00    +0.007 A 
ATOM     14  C   UNL     1      -1.483   1.746 -20.816  0.00  0.00    +0.046 A 
ATOM     15  C   UNL     1      -0.375   1.646 -21.356  0.00  0.00    +0.125 A 
ATOM     16  C   UNL     1      -1.142   2.603 -23.107  0.00  0.00    +0.016 A 
ATOM     17  C   UNL     1       3.076   1.808 -24.170  0.00  0.00    +0.165 A 
ATOM     18  C   UNL     1      -0.204   2.075 -22.503  0.00  0.00    +0.027 A 
ATOM     19  C   UNL     1       2.966   1.361 -23.020  0.00  0.00    +0.204 A 
ENDROOT
BRANCH   1  21
ATOM     20  C   UNL     1       2.047   1.668 -20.307  0.00  0.00    +0.277 C 
ATOM     21  O   UNL     1       1.736   0.994 -21.279  0.00  0.00    -0.491 OA
ENDBRANCH   1  21
BRANCH  15  22
ATOM     22  O   UNL     1       0.564   1.118 -20.751  0.00  0.00    -0.506 OA
ATOM     23  H   UNL     1       1.094   1.628 -20.171  0.00  0.00    +0.292 HD
ENDBRANCH  15  22
BRANCH   9  24
ATOM     24  O   UNL     1      -5.638   4.012 -23.323  0.00  0.00    -0.392 OA
ATOM     25  H   UNL     1      -6.191   3.435 -23.872  0.00  0.00    +0.210 HD
ENDBRANCH   9  24
BRANCH  17  26
ATOM     26  O   UNL     1       4.164   1.732 -24.751  0.00  0.00    -0.503 OA
ATOM     27  H   UNL     1       4.841   2.350 -24.559  0.00  0.00    +0.292 HD
ENDBRANCH  17  26
BRANCH  19  28
ATOM     28  O   UNL     1       3.922   0.834 -22.432  0.00  0.00    -0.488 OA
ATOM     29  C   UNL     1       4.911   1.488 -22.125  0.00  0.00    +0.277 C 
ENDBRANCH  19  28
TORSDOF 5
ENDMDL
MODEL 4
REMARK VINA RESULT:    -9.340      1.649      3.521
REMARK INTER + INTRA:         -10.585
REMARK INTER:                 -11.851
REMARK INTRA:                   1.266
REMARK UNBOUND:                 0.939
REMARK  Name = ZINC000014611785
REMARK  7 active torsions:
REMARK  status: ('A' for Active; 'I' for Inactive)
REMARK    1  A    between atoms: C_1  and  O_2
REMARK    2  A    between atoms: O_2  and  C_3
REMARK    3  A    between atoms: C_7  and  O_8
REMARK    4  A    between atoms: C_9  and  O_10
REMARK    5  A    between atoms: O_10  and  C_11
REMARK    6  A    between atoms: C_16  and  O_17
REMARK    7  A    between atoms: C_23  and  O_24
REMARK                            x       y       z     vdW  Elec       q    Type
REMARK                         _______ _______ _______ _____ _____    ______ ____
ROOT
ATOM      1  C   UNL     1      -2.407   3.707 -24.332  0.00  0.00    +0.173 A 
ATOM      2  C   UNL     1      -1.489   3.186 -23.689  0.00  0.00    +0.031 A 
ATOM      3  C   UNL     1      -1.678   2.807 -22.532  0.00  0.00    +0.019 A 
ATOM      4  C   UNL     1      -2.785   2.946 -22.012  0.00  0.00    -0.001 A 
ATOM      5  C   UNL     1      -2.421   2.427 -20.928  0.00  0.00    +0.039 C 
ATOM      6  C   UNL     1      -0.835   2.093 -21.319  0.00  0.00    +0.005 C 
ATOM      7  C   UNL     1       0.418   1.457 -20.640  0.00  0.00    +0.003 C 
ATOM      8  C   UNL     1       2.928   1.040 -21.552  0.00  0.00    +0.031 C 
ATOM      9  C   UNL     1       3.713   1.255 -22.753  0.00  0.00    +0.115 C 
ATOM     10  C   UNL     1       3.265   1.698 -23.568  0.00  0.00    +0.036 C 
ATOM     11  C   UNL     1       2.310   1.877 -23.275  0.00  0.00    +0.037 C 
ATOM     12  C   UNL     1       1.659   2.302 -23.877  0.00  0.00    -0.046 A 
ATOM     13  C   UNL     1       1.913   2.663 -25.038  0.00  0.00    +0.007 A 
ATOM     14  C   UNL     1       1.031   3.189 -25.723  0.00  0.00    +0.046 A 
ATOM     15  C   UNL     1      -0.102   3.357 -25.255  0.00  0.00    +0.125 A 
ATOM     16  C   UNL     1       0.526   2.471 -23.414  0.00  0.00    +0.016 A 
ATOM     17  C   UNL     1      -3.712   3.468 -22.647  0.00  0.00    +0.165 A 
ATOM     18  C   UNL     1      -0.354   2.997 -24.100  0.00  0.00    +0.027 A 
ATOM     19  C   UNL     1      -3.519   3.848 -23.810  0.00  0.00    +0.204 A 
ENDROOT
BRANCH   1  21
ATOM     20  C   UNL     1      -2.523   3.394 -26.447  0.00  0.00    +0.277 C 
ATOM     21  O   UNL     1      -2.179   4.076 -25.492  0.00  0.00    -0.491 OA
ENDBRANCH   1  21
BRANCH  15  22
ATOM     22  O   UNL     1      -0.983   3.883 -25.942  0.00  0.00    -0.506 OA
ATOM     23  H   UNL     1      -0.748   4.423 -26.672  0.00  0.00    +0.292 HD
ENDBRANCH  15  22
BRANCH   9  24
ATOM     24  O   UNL     1       4.946   0.920 -22.857  0.00  0.00    -0.392 OA
ATOM     25  H   UNL     1       5.483   1.711 -23.022  0.00  0.00    +0.210 HD
ENDBRANCH   9  24
BRANCH  17  26
ATOM     26  O   UNL     1      -4.828   3.614 -22.137  0.00  0.00    -0.503 OA
ATOM     27  H   UNL     1      -5.529   3.038 -22.372  0.00  0.00    +0.292 HD
ENDBRANCH  17  26
BRANCH  19  28
ATOM     28  O   UNL     1      -4.420   4.375 -24.482  0.00  0.00    -0.488 OA
ATOM     29  C   UNL     1      -5.403   3.734 -24.830  0.00  0.00    +0.277 C 
ENDBRANCH  19  28
TORSDOF 5
ENDMDL
MODEL 5
REMARK VINA RESULT:    -9.270      2.022      6.587
REMARK INTER + INTRA:         -10.500
REMARK INTER:                 -11.472
REMARK INTRA:                   0.973
REMARK UNBOUND:                 0.939
REMARK  Name = ZINC000014611785
REMARK  7 active torsions:
REMARK  status: ('A' for Active; 'I' for Inactive)
REMARK    1  A    between atoms: C_1  and  O_2
REMARK    2  A    between atoms: O_2  and  C_3
REMARK    3  A    between atoms: C_7  and  O_8
REMARK    4  A    between atoms: C_9  and  O_10
REMARK    5  A    between atoms: O_10  and  C_11
REMARK    6  A    between atoms: C_16  and  O_17
REMARK    7  A    between atoms: C_23  and  O_24
REMARK                            x       y       z     vdW  Elec       q    Type
REMARK                         _______ _______ _______ _____ _____    ______ ____
ROOT
ATOM      1  C   UNL     1       2.368   2.076 -22.984  0.00  0.00    +0.173 A 
ATOM      2  C   UNL     1       1.154   2.305 -22.966  0.00  0.00    +0.031 A 
ATOM      3  C   UNL     1       0.488   2.043 -21.964  0.00  0.00    +0.019 A 
ATOM      4  C   UNL     1       1.031   1.551 -20.975  0.00  0.00    -0.001 A 
ATOM      5  C   UNL     1      -0.040   1.503 -20.320  0.00  0.00    +0.039 C 
ATOM      6  C   UNL     1      -1.070   2.150 -21.460  0.00  0.00    +0.005 C 
ATOM      7  C   UNL     1      -2.586   2.496 -21.590  0.00  0.00    +0.003 C 
ATOM      8  C   UNL     1      -4.008   3.569 -23.623  0.00  0.00    +0.031 C 
ATOM      9  C   UNL     1      -3.802   4.057 -24.974  0.00  0.00    +0.115 C 
ATOM     10  C   UNL     1      -2.854   4.028 -25.373  0.00  0.00    +0.036 C 
ATOM     11  C   UNL     1      -2.274   3.629 -24.642  0.00  0.00    +0.037 C 
ATOM     12  C   UNL     1      -1.309   3.491 -24.769  0.00  0.00    -0.046 A 
ATOM     13  C   UNL     1      -0.693   3.778 -25.810  0.00  0.00    +0.007 A 
ATOM     14  C   UNL     1       0.521   3.569 -25.880  0.00  0.00    +0.046 A 
ATOM     15  C   UNL     1       1.123   3.075 -24.918  0.00  0.00    +0.125 A 
ATOM     16  C   UNL     1      -0.704   2.998 -23.812  0.00  0.00    +0.016 A 
ATOM     17  C   UNL     1       2.248   1.316 -20.983  0.00  0.00    +0.165 A 
ATOM     18  C   UNL     1       0.510   2.790 -23.884  0.00  0.00    +0.027 A 
ATOM     19  C   UNL     1       2.915   1.581 -21.992  0.00  0.00    +0.204 A 
ENDROOT
BRANCH   1  21
ATOM     20  C   UNL     1       3.376   1.474 -24.776  0.00  0.00    +0.277 C 
ATOM     21  O   UNL     1       3.005   2.353 -24.010  0.00  0.00    -0.491 OA
ENDBRANCH   1  21
BRANCH  15  22
ATOM     22  O   UNL     1       2.339   2.866 -24.991  0.00  0.00    -0.506 OA
ATOM     23  H   UNL     1       2.882   2.996 -24.239  0.00  0.00    +0.292 HD
ENDBRANCH  15  22
BRANCH   9  24
ATOM     24  O   UNL     1      -4.745   4.526 -25.703  0.00  0.00    -0.392 OA
ATOM     25  H   UNL     1      -4.519   5.427 -25.985  0.00  0.00    +0.210 HD
ENDBRANCH   9  24
BRANCH  17  26
ATOM     26  O   UNL     1       2.806   0.822 -19.997  0.00  0.00    -0.503 OA
ATOM     27  H   UNL     1       2.423   0.086 -19.563  0.00  0.00    +0.292 HD
ENDBRANCH  17  26
BRANCH  19  28
ATOM     28  O   UNL     1       4.135   1.363 -22.042  0.00  0.00    -0.488 OA
ATOM     29  C   UNL     1       4.930   2.090 -21.459  0.00  0.00    +0.277 C 
ENDBRANCH  19  28
TORSDOF 5
ENDMDL
MODEL 6
REMARK VINA RESULT:    -8.529      2.052      3.159
REMARK INTER + INTRA:          -9.585
REMARK INTER:                 -10.803
REMARK INTRA:                   1.218
REMARK UNBOUND:                 0.939
REMARK  Name = ZINC000014611785
REMARK  7 active torsions:
REMARK  status: ('A' for Active; 'I' for Inactive)
REMARK    1  A    between atoms: C_1  and  O_2
REMARK    2  A    between atoms: O_2  and  C_3
REMARK    3  A    between atoms: C_7  and  O_8
REMARK    4  A    between atoms: C_9  and  O_10
REMARK    5  A    between atoms: O_10  and  C_11
REMARK    6  A    between atoms: C_16  and  O_17
REMARK    7  A    between atoms: C_23  and  O_24
REMARK                            x       y       z     vdW  Elec       q    Type
REMARK                         _______ _______ _______ _____ _____    ______ ____
ROOT
ATOM      1  C   UNL     1      -1.570   2.557 -23.435  0.00  0.00    +0.173 A 
ATOM      2  C   UNL     1      -0.338   2.578 -23.342  0.00  0.00    +0.031 A 
ATOM      3  C   UNL     1       0.347   3.008 -24.272  0.00  0.00    +0.019 A 
ATOM      4  C   UNL     1      -0.195   3.418 -25.298  0.00  0.00    -0.001 A 
ATOM      5  C   UNL     1       0.897   3.706 -25.847  0.00  0.00    +0.039 C 
ATOM      6  C   UNL     1       1.932   3.238 -24.627  0.00  0.00    +0.005 C 
ATOM      7  C   UNL     1       3.470   3.200 -24.361  0.00  0.00    +0.003 C 
ATOM      8  C   UNL     1       4.895   2.360 -22.224  0.00  0.00    +0.031 C 
ATOM      9  C   UNL     1       4.674   1.789 -20.909  0.00  0.00    +0.115 C 
ATOM     10  C   UNL     1       3.708   1.610 -20.600  0.00  0.00    +0.036 C 
ATOM     11  C   UNL     1       3.126   1.911 -21.375  0.00  0.00    +0.037 C 
ATOM     12  C   UNL     1       2.147   1.847 -21.337  0.00  0.00    -0.046 A 
ATOM     13  C   UNL     1       1.512   1.402 -20.366  0.00  0.00    +0.007 A 
ATOM     14  C   UNL     1       0.280   1.358 -20.407  0.00  0.00    +0.046 A 
ATOM     15  C   UNL     1      -0.323   1.756 -21.411  0.00  0.00    +0.125 A 
ATOM     16  C   UNL     1       1.541   2.243 -22.338  0.00  0.00    +0.016 A 
ATOM     17  C   UNL     1      -1.430   3.401 -25.401  0.00  0.00    +0.165 A 
ATOM     18  C   UNL     1       0.308   2.199 -22.377  0.00  0.00    +0.027 A 
ATOM     19  C   UNL     1      -2.116   2.968 -24.465  0.00  0.00    +0.204 A 
ENDROOT
BRANCH   1  21
ATOM     20  C   UNL     1      -2.627   2.864 -21.597  0.00  0.00    +0.277 C 
ATOM     21  O   UNL     1      -2.224   2.117 -22.480  0.00  0.00    -0.491 OA
ENDBRANCH   1  21
BRANCH  15  22
ATOM     22  O   UNL     1      -1.557   1.712 -21.450  0.00  0.00    -0.506 OA
ATOM     23  H   UNL     1      -1.989   1.285 -22.164  0.00  0.00    +0.292 HD
ENDBRANCH  15  22
BRANCH   9  24
ATOM     24  O   UNL     1       5.625   1.492 -20.102  0.00  0.00    -0.392 OA
ATOM     25  H   UNL     1       5.307   0.847 -19.451  0.00  0.00    +0.210 HD
ENDBRANCH   9  24
BRANCH  17  26
ATOM     26  O   UNL     1      -1.988   3.810 -26.425  0.00  0.00    -0.503 OA
ATOM     27  H   UNL     1      -2.688   3.317 -26.805  0.00  0.00    +0.292 HD
ENDBRANCH  17  26
BRANCH  19  28
ATOM     28  O   UNL     1      -3.355   2.933 -24.526  0.00  0.00    -0.488 OA
ATOM     29  C   UNL     1      -4.015   3.965 -24.535  0.00  0.00    +0.277 C 
ENDBRANCH  19  28
TORSDOF 5
ENDMDL
MODEL 7
REMARK VINA RESULT:    -7.838      2.173      6.400
REMARK INTER + INTRA:          -8.732
REMARK INTER:                  -9.670
REMARK INTRA:                   0.939
REMARK UNBOUND:                 0.939
REMARK  Name = ZINC000014611785
REMARK  7 active torsions:
REMARK  status: ('A' for Active; 'I' for Inactive)
REMARK    1  A    between atoms: C_1  and  O_2
REMARK    2  A    between atoms: O_2  and  C_3
REMARK    3  A    between atoms: C_7  and  O_8
REMARK    4  A    between atoms: C_9  and  O_10
REMARK    5  A    between atoms: O_10  and  C_11
REMARK    6  A    between atoms: C_16  and  O_17
REMARK    7  A    between atoms: C_23  and  O_24
REMARK                            x       y       z     vdW  Elec       q    Type
REMARK                         _______ _______ _______ _____ _____    ______ ____
ROOT
ATOM      1  C   UNL     1       2.914   2.424 -22.243  0.00  0.00    +0.173 A 
ATOM      2  C   UNL     1       1.808   2.924 -22.476  0.00  0.00    +0.031 A 
ATOM      3  C   UNL     1       1.728   4.023 -23.027  0.00  0.00    +0.019 A 
ATOM      4  C   UNL     1       2.750   4.628 -23.349  0.00  0.00    -0.001 A 
ATOM      5  C   UNL     1       2.114   5.599 -23.826  0.00  0.00    +0.039 C 
ATOM      6  C   UNL     1       0.563   5.064 -23.530  0.00  0.00    +0.005 C 
ATOM      7  C   UNL     1      -0.899   5.562 -23.756  0.00  0.00    +0.003 C 
ATOM      8  C   UNL     1      -3.283   4.442 -23.152  0.00  0.00    +0.031 C 
ATOM      9  C   UNL     1      -3.810   3.237 -22.537  0.00  0.00    +0.115 C 
ATOM     10  C   UNL     1      -3.150   2.527 -22.191  0.00  0.00    +0.036 C 
ATOM     11  C   UNL     1      -2.230   2.902 -22.396  0.00  0.00    +0.037 C 
ATOM     12  C   UNL     1      -1.411   2.411 -22.163  0.00  0.00    -0.046 A 
ATOM     13  C   UNL     1      -1.397   1.301 -21.604  0.00  0.00    +0.007 A 
ATOM     14  C   UNL     1      -0.319   0.757 -21.350  0.00  0.00    +0.046 A 
ATOM     15  C   UNL     1       0.745   1.315 -21.648  0.00  0.00    +0.125 A 
ATOM     16  C   UNL     1      -0.348   2.965 -22.459  0.00  0.00    +0.016 A 
ATOM     17  C   UNL     1       3.864   4.135 -23.120  0.00  0.00    +0.165 A 
ATOM     18  C   UNL     1       0.730   2.419 -22.203  0.00  0.00    +0.027 A 
ATOM     19  C   UNL     1       3.942   3.030 -22.566  0.00  0.00    +0.204 A 
ENDROOT
BRANCH   1  21
ATOM     20  C   UNL     1       3.040   0.289 -22.343  0.00  0.00    +0.277 C 
ATOM     21  O   UNL     1       2.955   1.318 -21.688  0.00  0.00    -0.491 OA
ENDBRANCH   1  21
BRANCH  15  22
ATOM     22  O   UNL     1       1.823   0.769 -21.392  0.00  0.00    -0.506 OA
ATOM     23  H   UNL     1       2.245   0.928 -20.571  0.00  0.00    +0.292 HD
ENDBRANCH  15  22
BRANCH   9  24
ATOM     24  O   UNL     1      -5.064   3.008 -22.400  0.00  0.00    -0.392 OA
ATOM     25  H   UNL     1      -5.516   3.826 -22.142  0.00  0.00    +0.210 HD
ENDBRANCH   9  24
BRANCH  17  26
ATOM     26  O   UNL     1       4.899   4.730 -23.437  0.00  0.00    -0.503 OA
ATOM     27  H   UNL     1       5.586   4.843 -22.809  0.00  0.00    +0.292 HD
ENDBRANCH  17  26
BRANCH  19  28
ATOM     28  O   UNL     1       5.037   2.501 -22.318  0.00  0.00    -0.488 OA
ATOM     29  C   UNL     1       5.608   2.701 -21.254  0.00  0.00    +0.277 C 
ENDBRANCH  19  28
TORSDOF 5
ENDMDL
MODEL 8
REMARK VINA RESULT:    -7.819      2.134      7.062
REMARK INTER + INTRA:          -8.709
REMARK INTER:                  -9.942
REMARK INTRA:                   1.233
REMARK UNBOUND:                 0.939
REMARK  Name = ZINC000014611785
REMARK  7 active torsions:
REMARK  status: ('A' for Active; 'I' for Inactive)
REMARK    1  A    between atoms: C_1  and  O_2
REMARK    2  A    between atoms: O_2  and  C_3
REMARK    3  A    between atoms: C_7  and  O_8
REMARK    4  A    between atoms: C_9  and  O_10
REMARK    5  A    between atoms: O_10  and  C_11
REMARK    6  A    between atoms: C_16  and  O_17
REMARK    7  A    between atoms: C_23  and  O_24
REMARK                            x       y       z     vdW  Elec       q    Type
REMARK                         _______ _______ _______ _____ _____    ______ ____
ROOT
ATOM      1  C   UNL     1       3.517   2.731 -22.615  0.00  0.00    +0.173 A 
ATOM      2  C   UNL     1       2.286   2.660 -22.526  0.00  0.00    +0.031 A 
ATOM      3  C   UNL     1       1.766   2.006 -21.622  0.00  0.00    +0.019 A 
ATOM      4  C   UNL     1       2.471   1.418 -20.802  0.00  0.00    -0.001 A 
ATOM      5  C   UNL     1       1.485   0.960 -20.173  0.00  0.00    +0.039 C 
ATOM      6  C   UNL     1       0.261   1.617 -21.094  0.00  0.00    +0.005 C 
ATOM      7  C   UNL     1      -1.299   1.624 -21.114  0.00  0.00    +0.003 C 
ATOM      8  C   UNL     1      -3.061   2.817 -22.781  0.00  0.00    +0.031 C 
ATOM      9  C   UNL     1      -3.062   3.665 -23.959  0.00  0.00    +0.115 C 
ATOM     10  C   UNL     1      -2.161   3.959 -24.360  0.00  0.00    +0.036 C 
ATOM     11  C   UNL     1      -1.458   3.534 -23.764  0.00  0.00    +0.037 C 
ATOM     12  C   UNL     1      -0.498   3.660 -23.932  0.00  0.00    -0.046 A 
ATOM     13  C   UNL     1      -0.034   4.336 -24.867  0.00  0.00    +0.007 A 
ATOM     14  C   UNL     1       1.188   4.438 -25.000  0.00  0.00    +0.046 A 
ATOM     15  C   UNL     1       1.950   3.871 -24.208  0.00  0.00    +0.125 A 
ATOM     16  C   UNL     1       0.266   3.095 -23.143  0.00  0.00    +0.016 A 
ATOM     17  C   UNL     1       3.706   1.483 -20.882  0.00  0.00    +0.165 A 
ATOM     18  C   UNL     1       1.489   3.199 -23.279  0.00  0.00    +0.027 A 
ATOM     19  C   UNL     1       4.227   2.141 -21.792  0.00  0.00    +0.204 A 
ENDROOT
BRANCH   1  21
ATOM     20  C   UNL     1       4.317   4.569 -23.369  0.00  0.00    +0.277 C 
ATOM     21  O   UNL     1       4.003   3.398 -23.538  0.00  0.00    -0.491 OA
ENDBRANCH   1  21
BRANCH  15  22
ATOM     22  O   UNL     1       3.174   3.975 -24.344  0.00  0.00    -0.506 OA
ATOM     23  H   UNL     1       3.526   4.574 -24.972  0.00  0.00    +0.292 HD
ENDBRANCH  15  22
BRANCH   9  24
ATOM     24  O   UNL     1      -4.134   4.072 -24.531  0.00  0.00    -0.392 OA
ATOM     25  H   UNL     1      -3.973   4.178 -25.482  0.00  0.00    +0.210 HD
ENDBRANCH   9  24
BRANCH  17  26
ATOM     26  O   UNL     1       4.427   0.898 -20.066  0.00  0.00    -0.503 OA
ATOM     27  H   UNL     1       4.935   1.391 -19.453  0.00  0.00    +0.292 HD
ENDBRANCH  17  26
BRANCH  19  28
ATOM     28  O   UNL     1       5.459   2.232 -21.909  0.00  0.00    -0.488 OA
ATOM     29  C   UNL     1       6.115   2.928 -21.145  0.00  0.00    +0.277 C 
ENDBRANCH  19  28
TORSDOF 5
ENDMDL
