MODEL 1
REMARK VINA RESULT:    -8.620      0.000      0.000
REMARK INTER + INTRA:         -13.987
REMARK INTER:                 -12.369
REMARK INTRA:                  -1.618
REMARK UNBOUND:                -0.832
REMARK  Name = ZINC000096316333
REMARK  9 active torsions:
REMARK  status: ('A' for Active; 'I' for Inactive)
REMARK    1  A    between atoms: N_4  and  C_5
REMARK    2  A    between atoms: C_5  and  C_6
REMARK    3  A    between atoms: C_6  and  C_7
REMARK    4  A    between atoms: C_6  and  N_20
REMARK    5  A    between atoms: C_7  and  CA_8
REMARK    6  A    between atoms: CA_8  and  N_9
REMARK    7  A    between atoms: CA_8  and  C_17
REMARK    8  A    between atoms: N_9  and  C_10
REMARK    9  A    between atoms: C_10  and  C_11
REMARK                            x       y       z     vdW  Elec       q    Type
REMARK                         _______ _______ _______ _____ _____    ______ ____
ROOT
ATOM      1  C   UNL     1       2.118   2.814 -23.723  0.00  0.00    +0.145 C 
ENDROOT
BRANCH   1   2
ATOM      2  C   UNL     1       2.964   3.755 -23.423  0.00  0.00    +0.368 C 
BRANCH   2   3
ATOM      3  N   UNL     1       2.561   4.988 -23.336  0.00  0.00    +0.045 N 
ATOM      4  O   UNL     1       1.514   5.377 -24.002  0.00  0.00    -0.581 OA
ATOM      5  O   UNL     1       3.204   5.831 -22.585  0.00  0.00    +0.035 OA
ENDBRANCH   2   3
BRANCH   2   6
ATOM      6  C   UNL     1       4.213   3.463 -23.210  0.00  0.00    +0.277 C 
BRANCH   6  11
ATOM      7  N   UNL     1       5.298   1.205 -22.514  0.00  0.00    -0.292 N 
ATOM      8  H   UNL     1       4.971   1.332 -23.435  0.00  0.00    +0.255 HD
ATOM      9  H   UNL     1       5.708   0.350 -22.251  0.00  0.00    +0.255 HD
ATOM     10  C   UNL     1       5.185   2.167 -21.647  0.00  0.00    +0.341 C 
ATOM     11  N   UNL     1       4.643   3.296 -21.994  0.00  0.00    -0.272 N 
ATOM     12  H   UNL     1       4.559   4.024 -21.338  0.00  0.00    +0.258 HD
ATOM     13  N   UNL     1       5.616   2.000 -20.432  0.00  0.00    -0.292 N 
ATOM     14  H   UNL     1       5.531   2.729 -19.775  0.00  0.00    +0.255 HD
ATOM     15  H   UNL     1       6.027   1.145 -20.168  0.00  0.00    +0.255 HD
ENDBRANCH   6  11
ENDBRANCH   2   6
ENDBRANCH   1   2
BRANCH   1  16
ATOM     16  CA  UNL     1       1.362   2.302 -22.798  0.00  0.00    +0.116 C 
BRANCH  16  17
ATOM     17  C   UNL     1       1.756   1.249 -22.144  0.00  0.00    +0.090 C 
ATOM     18  OXT UNL     1       2.233   0.226 -22.788  0.00  0.00    -0.544 OA
ATOM     19  O   UNL     1       1.673   1.222 -20.848  0.00  0.00    -0.544 OA
ENDBRANCH  16  17
BRANCH  16  20
ATOM     20  N   UNL     1       0.210   2.842 -22.526  0.00  0.00    +0.237 N 
ATOM     21  H1  UNL     1       0.119   2.704 -21.520  0.00  0.00    +0.202 HD
ATOM     22  H2  UNL     1       0.249   3.802 -22.867  0.00  0.00    +0.202 HD
BRANCH  20  23
ATOM     23  C   UNL     1      -0.881   2.318 -23.001  0.00  0.00    +0.166 C 
BRANCH  23  24
ATOM     24  C   UNL     1      -2.035   2.687 -22.532  0.00  0.00    -0.003 A 
ATOM     25  C   UNL     1      -3.008   2.971 -23.347  0.00  0.00    +0.009 A 
ATOM     26  C   UNL     1      -4.163   3.339 -22.877  0.00  0.00    +0.000 A 
ATOM     27  C   UNL     1      -4.346   3.425 -21.593  0.00  0.00    +0.000 A 
ATOM     28  C   UNL     1      -3.374   3.141 -20.779  0.00  0.00    +0.000 A 
ATOM     29  C   UNL     1      -2.219   2.772 -21.248  0.00  0.00    +0.009 A 
ENDBRANCH  23  24
ENDBRANCH  20  23
ENDBRANCH  16  20
ENDBRANCH   1  16
TORSDOF 9
ENDMDL
MODEL 2
REMARK VINA RESULT:    -8.461      1.481      3.081
REMARK INTER + INTRA:         -13.746
REMARK INTER:                 -12.237
REMARK INTRA:                  -1.509
REMARK UNBOUND:                -0.832
REMARK  Name = ZINC000096316333
REMARK  9 active torsions:
REMARK  status: ('A' for Active; 'I' for Inactive)
REMARK    1  A    between atoms: N_4  and  C_5
REMARK    2  A    between atoms: C_5  and  C_6
REMARK    3  A    between atoms: C_6  and  C_7
REMARK    4  A    between atoms: C_6  and  N_20
REMARK    5  A    between atoms: C_7  and  CA_8
REMARK    6  A    between atoms: CA_8  and  N_9
REMARK    7  A    between atoms: CA_8  and  C_17
REMARK    8  A    between atoms: N_9  and  C_10
REMARK    9  A    between atoms: C_10  and  C_11
REMARK                            x       y       z     vdW  Elec       q    Type
REMARK                         _______ _______ _______ _____ _____    ______ ____
ROOT
ATOM      1  C   UNL     1       1.019   2.304 -23.496  0.00  0.00    +0.145 C 
ENDROOT
BRANCH   1   2
ATOM      2  C   UNL     1       1.688   2.128 -22.396  0.00  0.00    +0.368 C 
BRANCH   2   3
ATOM      3  N   UNL     1       1.148   1.488 -21.402  0.00  0.00    +0.045 N 
ATOM      4  O   UNL     1      -0.073   1.050 -21.498  0.00  0.00    -0.581 OA
ATOM      5  O   UNL     1       1.827   1.285 -20.313  0.00  0.00    +0.035 OA
ENDBRANCH   2   3
BRANCH   2   6
ATOM      6  C   UNL     1       2.898   2.593 -22.289  0.00  0.00    +0.277 C 
BRANCH   6  11
ATOM      7  N   UNL     1       4.881   2.229 -20.647  0.00  0.00    -0.292 N 
ATOM      8  H   UNL     1       4.114   2.785 -20.378  0.00  0.00    +0.255 HD
ATOM      9  H   UNL     1       5.632   2.092 -20.026  0.00  0.00    +0.255 HD
ATOM     10  C   UNL     1       4.901   1.678 -21.824  0.00  0.00    +0.341 C 
ATOM     11  N   UNL     1       3.910   1.859 -22.646  0.00  0.00    -0.272 N 
ATOM     12  H   UNL     1       3.926   1.441 -23.536  0.00  0.00    +0.258 HD
ATOM     13  N   UNL     1       5.914   0.944 -22.181  0.00  0.00    -0.292 N 
ATOM     14  H   UNL     1       5.929   0.526 -23.073  0.00  0.00    +0.255 HD
ATOM     15  H   UNL     1       6.665   0.806 -21.559  0.00  0.00    +0.255 HD
ENDBRANCH   6  11
ENDBRANCH   2   6
ENDBRANCH   1   2
BRANCH   1  16
ATOM     16  CA  UNL     1       0.441   3.444 -23.731  0.00  0.00    +0.116 C 
BRANCH  16  17
ATOM     17  C   UNL     1       1.021   4.323 -24.494  0.00  0.00    +0.090 C 
ATOM     18  OXT UNL     1       1.462   5.435 -23.985  0.00  0.00    -0.544 OA
ATOM     19  O   UNL     1       1.159   4.089 -25.764  0.00  0.00    -0.544 OA
ENDBRANCH  16  17
BRANCH  16  20
ATOM     20  N   UNL     1      -0.718   3.707 -23.201  0.00  0.00    +0.237 N 
ATOM     21  H1  UNL     1      -0.764   3.065 -22.410  0.00  0.00    +0.202 HD
ATOM     22  H2  UNL     1      -0.727   4.706 -22.997  0.00  0.00    +0.202 HD
BRANCH  20  23
ATOM     23  C   UNL     1      -1.808   3.448 -23.861  0.00  0.00    +0.166 C 
BRANCH  23  24
ATOM     24  C   UNL     1      -2.948   3.404 -23.240  0.00  0.00    -0.003 A 
ATOM     25  C   UNL     1      -2.994   3.052 -21.988  0.00  0.00    +0.009 A 
ATOM     26  C   UNL     1      -4.135   3.008 -21.368  0.00  0.00    +0.000 A 
ATOM     27  C   UNL     1      -5.231   3.314 -21.996  0.00  0.00    +0.000 A 
ATOM     28  C   UNL     1      -5.185   3.665 -23.247  0.00  0.00    +0.000 A 
ATOM     29  C   UNL     1      -4.044   3.710 -23.869  0.00  0.00    +0.009 A 
ENDBRANCH  23  24
ENDBRANCH  20  23
ENDBRANCH  16  20
ENDBRANCH   1  16
TORSDOF 9
ENDMDL
MODEL 3
REMARK VINA RESULT:    -8.300      1.578      2.095
REMARK INTER + INTRA:         -13.500
REMARK INTER:                 -12.115
REMARK INTRA:                  -1.384
REMARK UNBOUND:                -0.832
REMARK  Name = ZINC000096316333
REMARK  9 active torsions:
REMARK  status: ('A' for Active; 'I' for Inactive)
REMARK    1  A    between atoms: N_4  and  C_5
REMARK    2  A    between atoms: C_5  and  C_6
REMARK    3  A    between atoms: C_6  and  C_7
REMARK    4  A    between atoms: C_6  and  N_20
REMARK    5  A    between atoms: C_7  and  CA_8
REMARK    6  A    between atoms: CA_8  and  N_9
REMARK    7  A    between atoms: CA_8  and  C_17
REMARK    8  A    between atoms: N_9  and  C_10
REMARK    9  A    between atoms: C_10  and  C_11
REMARK                            x       y       z     vdW  Elec       q    Type
REMARK                         _______ _______ _______ _____ _____    ______ ____
ROOT
ATOM      1  C   UNL     1       1.120   3.240 -22.942  0.00  0.00    +0.145 C 
ENDROOT
BRANCH   1   2
ATOM      2  C   UNL     1       2.152   3.055 -23.711  0.00  0.00    +0.368 C 
BRANCH   2   3
ATOM      3  N   UNL     1       1.985   2.651 -24.935  0.00  0.00    +0.045 N 
ATOM      4  O   UNL     1       2.279   1.427 -25.261  0.00  0.00    -0.581 OA
ATOM      5  O   UNL     1       1.526   3.471 -25.834  0.00  0.00    +0.035 OA
ENDBRANCH   2   3
BRANCH   2   6
ATOM      6  C   UNL     1       3.350   3.273 -23.256  0.00  0.00    +0.277 C 
BRANCH   6  11
ATOM      7  N   UNL     1       4.226   2.288 -21.015  0.00  0.00    -0.292 N 
ATOM      8  H   UNL     1       3.557   3.010 -21.007  0.00  0.00    +0.255 HD
ATOM      9  H   UNL     1       4.557   1.915 -20.167  0.00  0.00    +0.255 HD
ATOM     10  C   UNL     1       4.671   1.827 -22.146  0.00  0.00    +0.341 C 
ATOM     11  N   UNL     1       4.233   2.319 -23.267  0.00  0.00    -0.272 N 
ATOM     12  H   UNL     1       4.570   1.971 -24.123  0.00  0.00    +0.258 HD
ATOM     13  N   UNL     1       5.554   0.873 -22.157  0.00  0.00    -0.292 N 
ATOM     14  H   UNL     1       5.891   0.524 -23.014  0.00  0.00    +0.255 HD
ATOM     15  H   UNL     1       5.886   0.500 -21.309  0.00  0.00    +0.255 HD
ENDBRANCH   6  11
ENDBRANCH   2   6
ENDBRANCH   1   2
BRANCH   1  16
ATOM     16  CA  UNL     1       0.328   2.247 -22.666  0.00  0.00    +0.116 C 
BRANCH  16  17
ATOM     17  C   UNL     1       0.705   1.328 -21.827  0.00  0.00    +0.090 C 
ATOM     18  OXT UNL     1       1.443   0.339 -22.235  0.00  0.00    -0.544 OA
ATOM     19  O   UNL     1       0.343   1.399 -20.581  0.00  0.00    -0.544 OA
ENDBRANCH  16  17
BRANCH  16  20
ATOM     20  N   UNL     1      -0.841   2.171 -23.230  0.00  0.00    +0.237 N 
ATOM     21  H1  UNL     1      -0.622   1.891 -24.186  0.00  0.00    +0.202 HD
ATOM     22  H2  UNL     1      -1.397   1.527 -22.668  0.00  0.00    +0.202 HD
BRANCH  20  23
ATOM     23  C   UNL     1      -1.556   3.245 -23.390  0.00  0.00    +0.166 C 
BRANCH  23  24
ATOM     24  C   UNL     1      -2.801   3.258 -23.017  0.00  0.00    -0.003 A 
ATOM     25  C   UNL     1      -3.131   2.824 -21.836  0.00  0.00    +0.009 A 
ATOM     26  C   UNL     1      -4.376   2.837 -21.463  0.00  0.00    +0.000 A 
ATOM     27  C   UNL     1      -5.293   3.283 -22.270  0.00  0.00    +0.000 A 
ATOM     28  C   UNL     1      -4.963   3.717 -23.450  0.00  0.00    +0.000 A 
ATOM     29  C   UNL     1      -3.717   3.704 -23.824  0.00  0.00    +0.009 A 
ENDBRANCH  23  24
ENDBRANCH  20  23
ENDBRANCH  16  20
ENDBRANCH   1  16
TORSDOF 9
ENDMDL
MODEL 4
REMARK VINA RESULT:    -8.260      1.658      3.307
REMARK INTER + INTRA:         -13.439
REMARK INTER:                 -12.145
REMARK INTRA:                  -1.293
REMARK UNBOUND:                -0.832
REMARK  Name = ZINC000096316333
REMARK  9 active torsions:
REMARK  status: ('A' for Active; 'I' for Inactive)
REMARK    1  A    between atoms: N_4  and  C_5
REMARK    2  A    between atoms: C_5  and  C_6
REMARK    3  A    between atoms: C_6  and  C_7
REMARK    4  A    between atoms: C_6  and  N_20
REMARK    5  A    between atoms: C_7  and  CA_8
REMARK    6  A    between atoms: CA_8  and  N_9
REMARK    7  A    between atoms: CA_8  and  C_17
REMARK    8  A    between atoms: N_9  and  C_10
REMARK    9  A    between atoms: C_10  and  C_11
REMARK                            x       y       z     vdW  Elec       q    Type
REMARK                         _______ _______ _______ _____ _____    ______ ____
ROOT
ATOM      1  C   UNL     1       1.227   2.776 -22.865  0.00  0.00    +0.145 C 
ENDROOT
BRANCH   1   2
ATOM      2  C   UNL     1       2.392   2.207 -22.957  0.00  0.00    +0.368 C 
BRANCH   2   3
ATOM      3  N   UNL     1       2.500   1.034 -23.506  0.00  0.00    +0.045 N 
ATOM      4  O   UNL     1       2.553   0.926 -24.801  0.00  0.00    -0.581 OA
ATOM      5  O   UNL     1       2.557  -0.031 -22.762  0.00  0.00    +0.035 OA
ENDBRANCH   2   3
BRANCH   2   6
ATOM      6  C   UNL     1       3.449   2.810 -22.500  0.00  0.00    +0.277 C 
BRANCH   6  11
ATOM      7  N   UNL     1       5.395   2.540 -20.796  0.00  0.00    -0.292 N 
ATOM      8  H   UNL     1       4.501   2.809 -20.484  0.00  0.00    +0.255 HD
ATOM      9  H   UNL     1       6.131   2.438 -20.151  0.00  0.00    +0.255 HD
ATOM     10  C   UNL     1       5.602   2.321 -22.061  0.00  0.00    +0.341 C 
ATOM     11  N   UNL     1       4.630   2.456 -22.913  0.00  0.00    -0.272 N 
ATOM     12  H   UNL     1       4.787   2.290 -23.870  0.00  0.00    +0.258 HD
ATOM     13  N   UNL     1       6.782   1.967 -22.474  0.00  0.00    -0.292 N 
ATOM     14  H   UNL     1       6.940   1.801 -23.432  0.00  0.00    +0.255 HD
ATOM     15  H   UNL     1       7.520   1.865 -21.829  0.00  0.00    +0.255 HD
ENDBRANCH   6  11
ENDBRANCH   2   6
ENDBRANCH   1   2
BRANCH   1  16
ATOM     16  CA  UNL     1       0.602   3.155 -23.940  0.00  0.00    +0.116 C 
BRANCH  16  17
ATOM     17  C   UNL     1       1.017   4.195 -24.601  0.00  0.00    +0.090 C 
ATOM     18  OXT UNL     1       1.197   5.326 -23.987  0.00  0.00    -0.544 OA
ATOM     19  O   UNL     1       1.252   4.102 -25.875  0.00  0.00    -0.544 OA
ENDBRANCH  16  17
BRANCH  16  20
ATOM     20  N   UNL     1      -0.439   2.495 -24.354  0.00  0.00    +0.237 N 
ATOM     21  H1  UNL     1      -0.691   2.974 -25.218  0.00  0.00    +0.202 HD
ATOM     22  H2  UNL     1      -0.157   1.517 -24.425  0.00  0.00    +0.202 HD
BRANCH  20  23
ATOM     23  C   UNL     1      -1.541   2.519 -23.665  0.00  0.00    +0.166 C 
BRANCH  23  24
ATOM     24  C   UNL     1      -2.628   2.996 -24.195  0.00  0.00    -0.003 A 
ATOM     25  C   UNL     1      -3.633   3.321 -23.436  0.00  0.00    +0.009 A 
ATOM     26  C   UNL     1      -4.720   3.797 -23.967  0.00  0.00    +0.000 A 
ATOM     27  C   UNL     1      -4.803   3.949 -25.256  0.00  0.00    +0.000 A 
ATOM     28  C   UNL     1      -3.798   3.625 -26.013  0.00  0.00    +0.000 A 
ATOM     29  C   UNL     1      -2.711   3.148 -25.483  0.00  0.00    +0.009 A 
ENDBRANCH  23  24
ENDBRANCH  20  23
ENDBRANCH  16  20
ENDBRANCH   1  16
TORSDOF 9
ENDMDL
MODEL 5
REMARK VINA RESULT:    -7.746      1.214      2.962
REMARK INTER + INTRA:         -12.653
REMARK INTER:                 -11.189
REMARK INTRA:                  -1.464
REMARK UNBOUND:                -0.832
REMARK  Name = ZINC000096316333
REMARK  9 active torsions:
REMARK  status: ('A' for Active; 'I' for Inactive)
REMARK    1  A    between atoms: N_4  and  C_5
REMARK    2  A    between atoms: C_5  and  C_6
REMARK    3  A    between atoms: C_6  and  C_7
REMARK    4  A    between atoms: C_6  and  N_20
REMARK    5  A    between atoms: C_7  and  CA_8
REMARK    6  A    between atoms: CA_8  and  N_9
REMARK    7  A    between atoms: CA_8  and  C_17
REMARK    8  A    between atoms: N_9  and  C_10
REMARK    9  A    between atoms: C_10  and  C_11
REMARK                            x       y       z     vdW  Elec       q    Type
REMARK                         _______ _______ _______ _____ _____    ______ ____
ROOT
ATOM      1  C   UNL     1       2.872   2.137 -23.981  0.00  0.00    +0.145 C 
ENDROOT
BRANCH   1   2
ATOM      2  C   UNL     1       3.473   1.447 -23.058  0.00  0.00    +0.368 C 
BRANCH   2   3
ATOM      3  N   UNL     1       2.796   0.613 -22.326  0.00  0.00    +0.045 N 
ATOM      4  O   UNL     1       2.708   0.800 -21.042  0.00  0.00    -0.581 OA
ATOM      5  O   UNL     1       2.209  -0.408 -22.876  0.00  0.00    +0.035 OA
ENDBRANCH   2   3
BRANCH   2   6
ATOM      6  C   UNL     1       4.751   1.590 -22.867  0.00  0.00    +0.277 C 
BRANCH   6  11
ATOM      7  N   UNL     1       5.616   1.508 -20.417  0.00  0.00    -0.292 N 
ATOM      8  H   UNL     1       5.271   0.692 -20.845  0.00  0.00    +0.255 HD
ATOM      9  H   UNL     1       5.944   1.477 -19.489  0.00  0.00    +0.255 HD
ATOM     10  C   UNL     1       5.640   2.627 -21.078  0.00  0.00    +0.341 C 
ATOM     11  N   UNL     1       5.207   2.669 -22.303  0.00  0.00    -0.272 N 
ATOM     12  H   UNL     1       5.225   3.516 -22.803  0.00  0.00    +0.258 HD
ATOM     13  N   UNL     1       6.096   3.706 -20.514  0.00  0.00    -0.292 N 
ATOM     14  H   UNL     1       6.114   4.554 -21.015  0.00  0.00    +0.255 HD
ATOM     15  H   UNL     1       6.424   3.675 -19.586  0.00  0.00    +0.255 HD
ENDBRANCH   6  11
ENDBRANCH   2   6
ENDBRANCH   1   2
BRANCH   1  16
ATOM     16  CA  UNL     1       1.902   2.942 -23.662  0.00  0.00    +0.116 C 
BRANCH  16  17
ATOM     17  C   UNL     1       2.129   4.217 -23.540  0.00  0.00    +0.090 C 
ATOM     18  OXT UNL     1       1.499   5.065 -24.297  0.00  0.00    -0.544 OA
ATOM     19  O   UNL     1       2.987   4.642 -22.661  0.00  0.00    -0.544 OA
ENDBRANCH  16  17
BRANCH  16  20
ATOM     20  N   UNL     1       0.705   2.474 -23.465  0.00  0.00    +0.237 N 
ATOM     21  H1  UNL     1       0.153   2.932 -24.190  0.00  0.00    +0.202 HD
ATOM     22  H2  UNL     1       0.778   1.457 -23.503  0.00  0.00    +0.202 HD
BRANCH  20  23
ATOM     23  C   UNL     1       0.065   2.765 -22.372  0.00  0.00    +0.166 C 
BRANCH  23  24
ATOM     24  C   UNL     1      -1.225   2.920 -22.396  0.00  0.00    -0.003 A 
ATOM     25  C   UNL     1      -1.933   2.647 -21.340  0.00  0.00    +0.009 A 
ATOM     26  C   UNL     1      -3.224   2.803 -21.365  0.00  0.00    +0.000 A 
ATOM     27  C   UNL     1      -3.807   3.230 -22.445  0.00  0.00    +0.000 A 
ATOM     28  C   UNL     1      -3.099   3.502 -23.501  0.00  0.00    +0.000 A 
ATOM     29  C   UNL     1      -1.809   3.347 -23.477  0.00  0.00    +0.009 A 
ENDBRANCH  23  24
ENDBRANCH  20  23
ENDBRANCH  16  20
ENDBRANCH   1  16
TORSDOF 9
ENDMDL
MODEL 6
REMARK VINA RESULT:    -7.731      1.639      3.163
REMARK INTER + INTRA:         -12.632
REMARK INTER:                 -11.315
REMARK INTRA:                  -1.317
REMARK UNBOUND:                -0.832
REMARK  Name = ZINC000096316333
REMARK  9 active torsions:
REMARK  status: ('A' for Active; 'I' for Inactive)
REMARK    1  A    between atoms: N_4  and  C_5
REMARK    2  A    between atoms: C_5  and  C_6
REMARK    3  A    between atoms: C_6  and  C_7
REMARK    4  A    between atoms: C_6  and  N_20
REMARK    5  A    between atoms: C_7  and  CA_8
REMARK    6  A    between atoms: CA_8  and  N_9
REMARK    7  A    between atoms: CA_8  and  C_17
REMARK    8  A    between atoms: N_9  and  C_10
REMARK    9  A    between atoms: C_10  and  C_11
REMARK                            x       y       z     vdW  Elec       q    Type
REMARK                         _______ _______ _______ _____ _____    ______ ____
ROOT
ATOM      1  C   UNL     1       1.018   1.971 -23.331  0.00  0.00    +0.145 C 
ENDROOT
BRANCH   1   2
ATOM      2  C   UNL     1       2.262   1.993 -22.957  0.00  0.00    +0.368 C 
BRANCH   2   3
ATOM      3  N   UNL     1       3.032   0.974 -23.198  0.00  0.00    +0.045 N 
ATOM      4  O   UNL     1       3.323   0.140 -22.243  0.00  0.00    -0.581 OA
ATOM      5  O   UNL     1       3.511   0.789 -24.392  0.00  0.00    +0.035 OA
ENDBRANCH   2   3
BRANCH   2   6
ATOM      6  C   UNL     1       2.737   3.035 -22.341  0.00  0.00    +0.277 C 
BRANCH   6  11
ATOM      7  N   UNL     1       3.137   5.557 -22.836  0.00  0.00    -0.292 N 
ATOM      8  H   UNL     1       2.230   5.233 -22.629  0.00  0.00    +0.255 HD
ATOM      9  H   UNL     1       3.288   6.511 -23.023  0.00  0.00    +0.255 HD
ATOM     10  C   UNL     1       4.134   4.722 -22.862  0.00  0.00    +0.341 C 
ATOM     11  N   UNL     1       3.935   3.462 -22.614  0.00  0.00    -0.272 N 
ATOM     12  H   UNL     1       4.689   2.831 -22.634  0.00  0.00    +0.258 HD
ATOM     13  N   UNL     1       5.331   5.149 -23.135  0.00  0.00    -0.292 N 
ATOM     14  H   UNL     1       6.086   4.517 -23.155  0.00  0.00    +0.255 HD
ATOM     15  H   UNL     1       5.482   6.104 -23.323  0.00  0.00    +0.255 HD
ENDBRANCH   6  11
ENDBRANCH   2   6
ENDBRANCH   1   2
BRANCH   1  16
ATOM     16  CA  UNL     1       0.479   3.028 -23.862  0.00  0.00    +0.116 C 
BRANCH  16  17
ATOM     17  C   UNL     1       1.014   3.571 -24.915  0.00  0.00    +0.090 C 
ATOM     18  OXT UNL     1       1.368   2.828 -25.921  0.00  0.00    -0.544 OA
ATOM     19  O   UNL     1       1.195   4.857 -24.962  0.00  0.00    -0.544 OA
ENDBRANCH  16  17
BRANCH  16  20
ATOM     20  N   UNL     1      -0.595   3.543 -23.340  0.00  0.00    +0.237 N 
ATOM     21  H1  UNL     1      -0.247   4.012 -22.504  0.00  0.00    +0.202 HD
ATOM     22  H2  UNL     1      -1.022   4.124 -24.061  0.00  0.00    +0.202 HD
BRANCH  20  23
ATOM     23  C   UNL     1      -1.531   2.766 -22.880  0.00  0.00    +0.166 C 
BRANCH  23  24
ATOM     24  C   UNL     1      -2.779   3.098 -23.022  0.00  0.00    -0.003 A 
ATOM     25  C   UNL     1      -3.210   3.529 -24.171  0.00  0.00    +0.009 A 
ATOM     26  C   UNL     1      -4.459   3.861 -24.313  0.00  0.00    +0.000 A 
ATOM     27  C   UNL     1      -5.277   3.763 -23.307  0.00  0.00    +0.000 A 
ATOM     28  C   UNL     1      -4.846   3.333 -22.160  0.00  0.00    +0.000 A 
ATOM     29  C   UNL     1      -3.597   3.000 -22.017  0.00  0.00    +0.009 A 
ENDBRANCH  23  24
ENDBRANCH  20  23
ENDBRANCH  16  20
ENDBRANCH   1  16
TORSDOF 9
ENDMDL
MODEL 7
REMARK VINA RESULT:    -7.444      2.808      4.639
REMARK INTER + INTRA:         -12.193
REMARK INTER:                 -10.753
REMARK INTRA:                  -1.440
REMARK UNBOUND:                -0.832
REMARK  Name = ZINC000096316333
REMARK  9 active torsions:
REMARK  status: ('A' for Active; 'I' for Inactive)
REMARK    1  A    between atoms: N_4  and  C_5
REMARK    2  A    between atoms: C_5  and  C_6
REMARK    3  A    between atoms: C_6  and  C_7
REMARK    4  A    between atoms: C_6  and  N_20
REMARK    5  A    between atoms: C_7  and  CA_8
REMARK    6  A    between atoms: CA_8  and  N_9
REMARK    7  A    between atoms: CA_8  and  C_17
REMARK    8  A    between atoms: N_9  and  C_10
REMARK    9  A    between atoms: C_10  and  C_11
REMARK                            x       y       z     vdW  Elec       q    Type
REMARK                         _______ _______ _______ _____ _____    ______ ____
ROOT
ATOM      1  C   UNL     1       0.676   3.309 -23.327  0.00  0.00    +0.145 C 
ENDROOT
BRANCH   1   2
ATOM      2  C   UNL     1       0.212   3.357 -24.539  0.00  0.00    +0.368 C 
BRANCH   2   3
ATOM      3  N   UNL     1       1.031   3.388 -25.548  0.00  0.00    +0.045 N 
ATOM      4  O   UNL     1       1.587   2.291 -25.969  0.00  0.00    -0.581 OA
ATOM      5  O   UNL     1       1.294   4.517 -26.137  0.00  0.00    +0.035 OA
ENDBRANCH   2   3
BRANCH   2   6
ATOM      6  C   UNL     1      -1.072   3.372 -24.744  0.00  0.00    +0.277 C 
BRANCH   6  11
ATOM      7  N   UNL     1      -3.640   3.427 -25.152  0.00  0.00    -0.292 N 
ATOM      8  H   UNL     1      -3.287   3.396 -24.234  0.00  0.00    +0.255 HD
ATOM      9  H   UNL     1      -4.611   3.447 -25.307  0.00  0.00    +0.255 HD
ATOM     10  C   UNL     1      -2.820   3.439 -26.161  0.00  0.00    +0.341 C 
ATOM     11  N   UNL     1      -1.536   3.412 -25.958  0.00  0.00    -0.272 N 
ATOM     12  H   UNL     1      -0.916   3.422 -26.722  0.00  0.00    +0.258 HD
ATOM     13  N   UNL     1      -3.284   3.480 -27.375  0.00  0.00    -0.292 N 
ATOM     14  H   UNL     1      -2.663   3.489 -28.140  0.00  0.00    +0.255 HD
ATOM     15  H   UNL     1      -4.256   3.500 -27.530  0.00  0.00    +0.255 HD
ENDBRANCH   6  11
ENDBRANCH   2   6
ENDBRANCH   1   2
BRANCH   1  16
ATOM     16  CA  UNL     1       0.769   2.168 -22.710  0.00  0.00    +0.116 C 
BRANCH  16  17
ATOM     17  C   UNL     1       1.930   1.605 -22.554  0.00  0.00    +0.090 C 
ATOM     18  OXT UNL     1       2.068   0.330 -22.768  0.00  0.00    -0.544 OA
ATOM     19  O   UNL     1       2.953   2.317 -22.185  0.00  0.00    -0.544 OA
ENDBRANCH  16  17
BRANCH  16  20
ATOM     20  N   UNL     1      -0.301   1.590 -22.249  0.00  0.00    +0.237 N 
ATOM     21  H1  UNL     1      -1.004   1.799 -22.958  0.00  0.00    +0.202 HD
ATOM     22  H2  UNL     1      -0.063   0.609 -22.099  0.00  0.00    +0.202 HD
BRANCH  20  23
ATOM     23  C   UNL     1      -0.849   2.017 -21.150  0.00  0.00    +0.166 C 
BRANCH  23  24
ATOM     24  C   UNL     1      -2.030   2.556 -21.180  0.00  0.00    -0.003 A 
ATOM     25  C   UNL     1      -2.176   3.820 -20.909  0.00  0.00    +0.009 A 
ATOM     26  C   UNL     1      -3.359   4.359 -20.940  0.00  0.00    +0.000 A 
ATOM     27  C   UNL     1      -4.396   3.635 -21.241  0.00  0.00    +0.000 A 
ATOM     28  C   UNL     1      -4.250   2.373 -21.511  0.00  0.00    +0.000 A 
ATOM     29  C   UNL     1      -3.068   1.833 -21.481  0.00  0.00    +0.009 A 
ENDBRANCH  23  24
ENDBRANCH  20  23
ENDBRANCH  16  20
ENDBRANCH   1  16
TORSDOF 9
ENDMDL
MODEL 8
REMARK VINA RESULT:    -7.107      1.898      2.545
REMARK INTER + INTRA:         -11.678
REMARK INTER:                 -10.846
REMARK INTRA:                  -0.832
REMARK UNBOUND:                -0.832
REMARK  Name = ZINC000096316333
REMARK  9 active torsions:
REMARK  status: ('A' for Active; 'I' for Inactive)
REMARK    1  A    between atoms: N_4  and  C_5
REMARK    2  A    between atoms: C_5  and  C_6
REMARK    3  A    between atoms: C_6  and  C_7
REMARK    4  A    between atoms: C_6  and  N_20
REMARK    5  A    between atoms: C_7  and  CA_8
REMARK    6  A    between atoms: CA_8  and  N_9
REMARK    7  A    between atoms: CA_8  and  C_17
REMARK    8  A    between atoms: N_9  and  C_10
REMARK    9  A    between atoms: C_10  and  C_11
REMARK                            x       y       z     vdW  Elec       q    Type
REMARK                         _______ _______ _______ _____ _____    ______ ____
ROOT
ATOM      1  C   UNL     1       2.356   2.450 -24.479  0.00  0.00    +0.145 C 
ENDROOT
BRANCH   1   2
ATOM      2  C   UNL     1       3.262   2.436 -23.548  0.00  0.00    +0.368 C 
BRANCH   2   3
ATOM      3  N   UNL     1       4.011   3.481 -23.354  0.00  0.00    +0.045 N 
ATOM      4  O   UNL     1       5.233   3.496 -23.798  0.00  0.00    -0.581 OA
ATOM      5  O   UNL     1       3.538   4.511 -22.717  0.00  0.00    +0.035 OA
ENDBRANCH   2   3
BRANCH   2   6
ATOM      6  C   UNL     1       3.421   1.378 -22.809  0.00  0.00    +0.277 C 
BRANCH   6  11
ATOM      7  N   UNL     1       5.860   0.716 -22.198  0.00  0.00    -0.292 N 
ATOM      8  H   UNL     1       5.543   0.626 -23.126  0.00  0.00    +0.255 HD
ATOM      9  H   UNL     1       6.783   0.466 -21.967  0.00  0.00    +0.255 HD
ATOM     10  C   UNL     1       5.059   1.166 -21.279  0.00  0.00    +0.341 C 
ATOM     11  N   UNL     1       3.839   1.497 -21.584  0.00  0.00    -0.272 N 
ATOM     12  H   UNL     1       3.232   1.837 -20.888  0.00  0.00    +0.258 HD
ATOM     13  N   UNL     1       5.476   1.285 -20.054  0.00  0.00    -0.292 N 
ATOM     14  H   UNL     1       4.869   1.626 -19.357  0.00  0.00    +0.255 HD
ATOM     15  H   UNL     1       6.400   1.034 -19.822  0.00  0.00    +0.255 HD
ENDBRANCH   6  11
ENDBRANCH   2   6
ENDBRANCH   1   2
BRANCH   1  16
ATOM     16  CA  UNL     1       1.243   3.097 -24.293  0.00  0.00    +0.116 C 
BRANCH  16  17
ATOM     17  C   UNL     1       0.656   3.680 -25.295  0.00  0.00    +0.090 C 
ATOM     18  OXT UNL     1      -0.636   3.609 -25.422  0.00  0.00    -0.544 OA
ATOM     19  O   UNL     1       1.359   4.335 -26.170  0.00  0.00    -0.544 OA
ENDBRANCH  16  17
BRANCH  16  20
ATOM     20  N   UNL     1       0.718   3.161 -23.105  0.00  0.00    +0.237 N 
ATOM     21  H1  UNL     1       1.486   2.879 -22.495  0.00  0.00    +0.202 HD
ATOM     22  H2  UNL     1       0.355   4.107 -22.995  0.00  0.00    +0.202 HD
BRANCH  20  23
ATOM     23  C   UNL     1      -0.241   2.348 -22.774  0.00  0.00    +0.166 C 
BRANCH  23  24
ATOM     24  C   UNL     1      -1.276   2.795 -22.128  0.00  0.00    -0.003 A 
ATOM     25  C   UNL     1      -2.122   1.961 -21.598  0.00  0.00    +0.009 A 
ATOM     26  C   UNL     1      -3.157   2.409 -20.951  0.00  0.00    +0.000 A 
ATOM     27  C   UNL     1      -3.348   3.689 -20.834  0.00  0.00    +0.000 A 
ATOM     28  C   UNL     1      -2.503   4.522 -21.364  0.00  0.00    +0.000 A 
ATOM     29  C   UNL     1      -1.467   4.076 -22.010  0.00  0.00    +0.009 A 
ENDBRANCH  23  24
ENDBRANCH  20  23
ENDBRANCH  16  20
ENDBRANCH   1  16
TORSDOF 9
ENDMDL
MODEL 9
REMARK VINA RESULT:    -6.982      2.088      6.572
REMARK INTER + INTRA:         -11.488
REMARK INTER:                 -10.051
REMARK INTRA:                  -1.437
REMARK UNBOUND:                -0.832
REMARK  Name = ZINC000096316333
REMARK  9 active torsions:
REMARK  status: ('A' for Active; 'I' for Inactive)
REMARK    1  A    between atoms: N_4  and  C_5
REMARK    2  A    between atoms: C_5  and  C_6
REMARK    3  A    between atoms: C_6  and  C_7
REMARK    4  A    between atoms: C_6  and  N_20
REMARK    5  A    between atoms: C_7  and  CA_8
REMARK    6  A    between atoms: CA_8  and  N_9
REMARK    7  A    between atoms: CA_8  and  C_17
REMARK    8  A    between atoms: N_9  and  C_10
REMARK    9  A    between atoms: C_10  and  C_11
REMARK                            x       y       z     vdW  Elec       q    Type
REMARK                         _______ _______ _______ _____ _____    ______ ____
ROOT
ATOM      1  C   UNL     1       0.379   2.201 -23.205  0.00  0.00    +0.145 C 
ENDROOT
BRANCH   1   2
ATOM      2  C   UNL     1      -0.545   3.024 -22.807  0.00  0.00    +0.368 C 
BRANCH   2   3
ATOM      3  N   UNL     1      -0.737   4.142 -23.440  0.00  0.00    +0.045 N 
ATOM      4  O   UNL     1      -1.016   5.225 -22.776  0.00  0.00    -0.581 OA
ATOM      5  O   UNL     1      -0.649   4.179 -24.737  0.00  0.00    +0.035 OA
ENDBRANCH   2   3
BRANCH   2   6
ATOM      6  C   UNL     1      -1.278   2.728 -21.774  0.00  0.00    +0.277 C 
BRANCH   6  11
ATOM      7  N   UNL     1      -3.023   4.135 -20.456  0.00  0.00    -0.292 N 
ATOM      8  H   UNL     1      -2.061   4.311 -20.343  0.00  0.00    +0.255 HD
ATOM      9  H   UNL     1      -3.683   4.667 -19.958  0.00  0.00    +0.255 HD
ATOM     10  C   UNL     1      -3.420   3.197 -21.265  0.00  0.00    +0.341 C 
ATOM     11  N   UNL     1      -2.548   2.494 -21.924  0.00  0.00    -0.272 N 
ATOM     12  H   UNL     1      -2.849   1.784 -22.536  0.00  0.00    +0.258 HD
ATOM     13  N   UNL     1      -4.690   2.963 -21.415  0.00  0.00    -0.292 N 
ATOM     14  H   UNL     1      -4.991   2.253 -22.028  0.00  0.00    +0.255 HD
ATOM     15  H   UNL     1      -5.351   3.496 -20.916  0.00  0.00    +0.255 HD
ENDBRANCH   6  11
ENDBRANCH   2   6
ENDBRANCH   1   2
BRANCH   1  16
ATOM     16  CA  UNL     1       1.543   2.202 -22.626  0.00  0.00    +0.116 C 
BRANCH  16  17
ATOM     17  C   UNL     1       1.964   1.137 -22.010  0.00  0.00    +0.090 C 
ATOM     18  OXT UNL     1       2.048   1.127 -20.713  0.00  0.00    -0.544 OA
ATOM     19  O   UNL     1       2.299   0.083 -22.691  0.00  0.00    -0.544 OA
ENDBRANCH  16  17
BRANCH  16  20
ATOM     20  N   UNL     1       2.288   3.268 -22.663  0.00  0.00    +0.237 N 
ATOM     21  H1  UNL     1       1.628   4.005 -22.913  0.00  0.00    +0.202 HD
ATOM     22  H2  UNL     1       2.746   3.337 -21.755  0.00  0.00    +0.202 HD
BRANCH  20  23
ATOM     23  C   UNL     1       3.218   3.380 -23.564  0.00  0.00    +0.166 C 
BRANCH  23  24
ATOM     24  C   UNL     1       4.447   3.602 -23.204  0.00  0.00    -0.003 A 
ATOM     25  C   UNL     1       5.258   2.605 -23.007  0.00  0.00    +0.009 A 
ATOM     26  C   UNL     1       6.487   2.828 -22.647  0.00  0.00    +0.000 A 
ATOM     27  C   UNL     1       6.906   4.048 -22.484  0.00  0.00    +0.000 A 
ATOM     28  C   UNL     1       6.096   5.044 -22.681  0.00  0.00    +0.000 A 
ATOM     29  C   UNL     1       4.866   4.822 -23.041  0.00  0.00    +0.009 A 
ENDBRANCH  23  24
ENDBRANCH  20  23
ENDBRANCH  16  20
ENDBRANCH   1  16
TORSDOF 9
ENDMDL
