MODEL 1
REMARK VINA RESULT:   -10.040      0.000      0.000
REMARK INTER + INTRA:         -10.040
REMARK INTER:                 -10.040
REMARK INTRA:                   0.000
REMARK UNBOUND:                 0.000
REMARK  Name = C=C1C(=O)O[C@H]2[C@H]1CC/C(C)=C/CC[C@]1(C)O[C@@H]21                  ZINC000100066683
REMARK  2 active torsions:
REMARK  status: ('A' for Active; 'I' for Inactive)
REMARK    1  A    between atoms: C_10  and  C_11
REMARK    2  A    between atoms: C_15  and  C_16
REMARK                            x       y       z     vdW  Elec       q    Type
REMARK                         _______ _______ _______ _____ _____    ______ ____
ROOT
ATOM      1  C   UNL     1       0.559   2.580 -22.987  0.00  0.00    +0.020 C 
ATOM      2  C   UNL     1      -0.238   3.034 -23.922  0.00  0.00    +0.036 C 
ATOM      3  C   UNL     1       0.115   3.384 -25.134  0.00  0.00    +0.335 C 
ATOM      4  O   UNL     1      -0.961   3.785 -25.771  0.00  0.00    -0.455 OA
ATOM      5  C   UNL     1      -1.978   3.683 -24.951  0.00  0.00    +0.216 C 
ATOM      6  C   UNL     1      -3.340   3.982 -25.141  0.00  0.00    +0.192 C 
ATOM      7  O   UNL     1      -4.591   4.281 -25.388  0.00  0.00    -0.361 OA
ATOM      8  C   UNL     1      -4.247   3.822 -24.207  0.00  0.00    +0.097 C 
ATOM      9  C   UNL     1      -3.527   3.362 -23.214  0.00  0.00    +0.044 C 
ATOM     10  C   UNL     1      -5.503   3.845 -23.634  0.00  0.00    +0.041 C 
ATOM     11  C   UNL     1      -5.480   3.454 -22.492  0.00  0.00    +0.030 C 
ATOM     12  C   UNL     1      -4.330   3.197 -22.318  0.00  0.00    -0.028 C 
ATOM     13  C   UNL     1      -3.725   2.768 -21.361  0.00  0.00    -0.077 C 
ATOM     14  C   UNL     1      -4.270   2.476 -20.219  0.00  0.00    +0.039 C 
ATOM     15  C   UNL     1      -2.495   2.662 -21.674  0.00  0.00    +0.031 C 
ATOM     16  C   UNL     1      -2.463   3.079 -22.922  0.00  0.00    +0.016 C 
ATOM     17  O   UNL     1       1.331   3.340 -25.625  0.00  0.00    -0.245 OA
ATOM     18  C   UNL     1      -1.532   3.220 -23.812  0.00  0.00    +0.069 C 
ENDROOT
TORSDOF 0
ENDMDL
MODEL 2
REMARK VINA RESULT:    -9.889      2.161      3.282
REMARK INTER + INTRA:          -9.889
REMARK INTER:                  -9.889
REMARK INTRA:                   0.000
REMARK UNBOUND:                 0.000
REMARK  Name = C=C1C(=O)O[C@H]2[C@H]1CC/C(C)=C/CC[C@]1(C)O[C@@H]21                  ZINC000100066683
REMARK  2 active torsions:
REMARK  status: ('A' for Active; 'I' for Inactive)
REMARK    1  A    between atoms: C_10  and  C_11
REMARK    2  A    between atoms: C_15  and  C_16
REMARK                            x       y       z     vdW  Elec       q    Type
REMARK                         _______ _______ _______ _____ _____    ______ ____
ROOT
ATOM      1  C   UNL     1       0.808   2.607 -24.006  0.00  0.00    +0.020 C 
ATOM      2  C   UNL     1       0.090   2.336 -22.944  0.00  0.00    +0.036 C 
ATOM      3  C   UNL     1       0.520   1.776 -21.842  0.00  0.00    +0.335 C 
ATOM      4  O   UNL     1      -0.493   1.673 -21.015  0.00  0.00    -0.455 OA
ATOM      5  C   UNL     1      -1.551   2.170 -21.607  0.00  0.00    +0.216 C 
ATOM      6  C   UNL     1      -2.878   2.298 -21.155  0.00  0.00    +0.192 C 
ATOM      7  O   UNL     1      -4.091   2.385 -20.670  0.00  0.00    -0.361 OA
ATOM      8  C   UNL     1      -3.835   2.826 -21.879  0.00  0.00    +0.097 C 
ATOM      9  C   UNL     1      -3.196   3.132 -22.982  0.00  0.00    +0.044 C 
ATOM     10  C   UNL     1      -5.110   3.257 -22.186  0.00  0.00    +0.041 C 
ATOM     11  C   UNL     1      -5.168   3.731 -23.294  0.00  0.00    +0.030 C 
ATOM     12  C   UNL     1      -4.048   3.629 -23.689  0.00  0.00    -0.028 C 
ATOM     13  C   UNL     1      -3.519   3.938 -24.734  0.00  0.00    -0.077 C 
ATOM     14  C   UNL     1      -4.136   4.498 -25.730  0.00  0.00    +0.039 C 
ATOM     15  C   UNL     1      -2.288   3.620 -24.674  0.00  0.00    +0.031 C 
ATOM     16  C   UNL     1      -2.169   3.093 -23.473  0.00  0.00    +0.016 C 
ATOM     17  O   UNL     1       1.751   1.386 -21.607  0.00  0.00    -0.245 OA
ATOM     18  C   UNL     1      -1.192   2.579 -22.796  0.00  0.00    +0.069 C 
ENDROOT
TORSDOF 0
ENDMDL
MODEL 3
REMARK VINA RESULT:    -9.784      1.360      4.495
REMARK INTER + INTRA:          -9.784
REMARK INTER:                  -9.784
REMARK INTRA:                   0.000
REMARK UNBOUND:                 0.000
REMARK  Name = C=C1C(=O)O[C@H]2[C@H]1CC/C(C)=C/CC[C@]1(C)O[C@@H]21                  ZINC000100066683
REMARK  2 active torsions:
REMARK  status: ('A' for Active; 'I' for Inactive)
REMARK    1  A    between atoms: C_10  and  C_11
REMARK    2  A    between atoms: C_15  and  C_16
REMARK                            x       y       z     vdW  Elec       q    Type
REMARK                         _______ _______ _______ _____ _____    ______ ____
ROOT
ATOM      1  C   UNL     1      -4.084   2.305 -20.537  0.00  0.00    +0.020 C 
ATOM      2  C   UNL     1      -3.961   2.780 -21.752  0.00  0.00    +0.036 C 
ATOM      3  C   UNL     1      -4.920   3.292 -22.482  0.00  0.00    +0.335 C 
ATOM      4  O   UNL     1      -4.406   3.656 -23.633  0.00  0.00    -0.455 OA
ATOM      5  C   UNL     1      -3.127   3.368 -23.614  0.00  0.00    +0.216 C 
ATOM      6  C   UNL     1      -2.133   3.555 -24.592  0.00  0.00    +0.192 C 
ATOM      7  O   UNL     1      -1.259   3.759 -25.546  0.00  0.00    -0.361 OA
ATOM      8  C   UNL     1      -0.880   3.209 -24.417  0.00  0.00    +0.097 C 
ATOM      9  C   UNL     1      -0.908   2.713 -23.204  0.00  0.00    +0.044 C 
ATOM     10  C   UNL     1       0.454   3.049 -24.735  0.00  0.00    +0.041 C 
ATOM     11  C   UNL     1       1.072   2.540 -23.832  0.00  0.00    +0.030 C 
ATOM     12  C   UNL     1       0.239   2.376 -22.995  0.00  0.00    -0.028 C 
ATOM     13  C   UNL     1       0.283   1.905 -21.881  0.00  0.00    -0.077 C 
ATOM     14  C   UNL     1       1.360   1.439 -21.323  0.00  0.00    +0.039 C 
ATOM     15  C   UNL     1      -0.885   1.952 -21.375  0.00  0.00    +0.031 C 
ATOM     16  C   UNL     1      -1.606   2.504 -22.328  0.00  0.00    +0.016 C 
ATOM     17  O   UNL     1      -6.176   3.418 -22.123  0.00  0.00    -0.245 OA
ATOM     18  C   UNL     1      -2.853   2.829 -22.455  0.00  0.00    +0.069 C 
ENDROOT
TORSDOF 0
ENDMDL
MODEL 4
REMARK VINA RESULT:    -9.597      2.174      5.339
REMARK INTER + INTRA:          -9.597
REMARK INTER:                  -9.597
REMARK INTRA:                   0.000
REMARK UNBOUND:                 0.000
REMARK  Name = C=C1C(=O)O[C@H]2[C@H]1CC/C(C)=C/CC[C@]1(C)O[C@@H]21                  ZINC000100066683
REMARK  2 active torsions:
REMARK  status: ('A' for Active; 'I' for Inactive)
REMARK    1  A    between atoms: C_10  and  C_11
REMARK    2  A    between atoms: C_15  and  C_16
REMARK                            x       y       z     vdW  Elec       q    Type
REMARK                         _______ _______ _______ _____ _____    ______ ____
ROOT
ATOM      1  C   UNL     1      -4.200   4.184 -24.159  0.00  0.00    +0.020 C 
ATOM      2  C   UNL     1      -3.752   3.458 -23.164  0.00  0.00    +0.036 C 
ATOM      3  C   UNL     1      -4.462   2.997 -22.164  0.00  0.00    +0.335 C 
ATOM      4  O   UNL     1      -3.662   2.319 -21.376  0.00  0.00    -0.455 OA
ATOM      5  C   UNL     1      -2.456   2.362 -21.888  0.00  0.00    +0.216 C 
ATOM      6  C   UNL     1      -1.248   1.800 -21.436  0.00  0.00    +0.192 C 
ATOM      7  O   UNL     1      -0.161   1.249 -20.955  0.00  0.00    -0.361 OA
ATOM      8  C   UNL     1      -0.110   1.936 -22.073  0.00  0.00    +0.097 C 
ATOM      9  C   UNL     1      -0.467   2.663 -23.102  0.00  0.00    +0.044 C 
ATOM     10  C   UNL     1       1.240   1.778 -22.317  0.00  0.00    +0.041 C 
ATOM     11  C   UNL     1       1.579   2.335 -23.332  0.00  0.00    +0.030 C 
ATOM     12  C   UNL     1       0.562   2.817 -23.727  0.00  0.00    -0.028 C 
ATOM     13  C   UNL     1       0.301   3.487 -24.701  0.00  0.00    -0.077 C 
ATOM     14  C   UNL     1       1.168   3.848 -25.598  0.00  0.00    +0.039 C 
ATOM     15  C   UNL     1      -0.943   3.761 -24.682  0.00  0.00    +0.031 C 
ATOM     16  C   UNL     1      -1.366   3.171 -23.583  0.00  0.00    +0.016 C 
ATOM     17  O   UNL     1      -5.749   3.181 -21.984  0.00  0.00    -0.245 OA
ATOM     18  C   UNL     1      -2.513   3.064 -22.990  0.00  0.00    +0.069 C 
ENDROOT
TORSDOF 0
ENDMDL
MODEL 5
REMARK VINA RESULT:    -9.069      1.434      2.620
REMARK INTER + INTRA:          -9.069
REMARK INTER:                  -9.069
REMARK INTRA:                   0.000
REMARK UNBOUND:                 0.000
REMARK  Name = C=C1C(=O)O[C@H]2[C@H]1CC/C(C)=C/CC[C@]1(C)O[C@@H]21                  ZINC000100066683
REMARK  2 active torsions:
REMARK  status: ('A' for Active; 'I' for Inactive)
REMARK    1  A    between atoms: C_10  and  C_11
REMARK    2  A    between atoms: C_15  and  C_16
REMARK                            x       y       z     vdW  Elec       q    Type
REMARK                         _______ _______ _______ _____ _____    ______ ____
ROOT
ATOM      1  C   UNL     1       1.866   1.478 -21.172  0.00  0.00    +0.020 C 
ATOM      2  C   UNL     1       1.665   1.913 -22.391  0.00  0.00    +0.036 C 
ATOM      3  C   UNL     1       2.567   2.005 -23.337  0.00  0.00    +0.335 C 
ATOM      4  O   UNL     1       1.982   2.482 -24.411  0.00  0.00    -0.455 OA
ATOM      5  C   UNL     1       0.719   2.685 -24.128  0.00  0.00    +0.216 C 
ATOM      6  C   UNL     1      -0.329   3.181 -24.925  0.00  0.00    +0.192 C 
ATOM      7  O   UNL     1      -1.256   3.650 -25.724  0.00  0.00    -0.361 OA
ATOM      8  C   UNL     1      -1.557   3.327 -24.488  0.00  0.00    +0.097 C 
ATOM      9  C   UNL     1      -1.449   2.908 -23.251  0.00  0.00    +0.044 C 
ATOM     10  C   UNL     1      -2.897   3.654 -24.539  0.00  0.00    +0.041 C 
ATOM     11  C   UNL     1      -3.449   3.447 -23.487  0.00  0.00    +0.030 C 
ATOM     12  C   UNL     1      -2.571   3.025 -22.800  0.00  0.00    -0.028 C 
ATOM     13  C   UNL     1      -2.541   2.652 -21.649  0.00  0.00    -0.077 C 
ATOM     14  C   UNL     1      -3.570   2.638 -20.856  0.00  0.00    +0.039 C 
ATOM     15  C   UNL     1      -1.353   2.288 -21.372  0.00  0.00    +0.031 C 
ATOM     16  C   UNL     1      -0.702   2.495 -22.497  0.00  0.00    +0.016 C 
ATOM     17  O   UNL     1       3.833   1.677 -23.228  0.00  0.00    -0.245 OA
ATOM     18  C   UNL     1       0.524   2.334 -22.883  0.00  0.00    +0.069 C 
ENDROOT
TORSDOF 0
ENDMDL
MODEL 6
REMARK VINA RESULT:    -8.736      2.909      4.623
REMARK INTER + INTRA:          -8.736
REMARK INTER:                  -8.736
REMARK INTRA:                   0.000
REMARK UNBOUND:                 0.000
REMARK  Name = C=C1C(=O)O[C@H]2[C@H]1CC/C(C)=C/CC[C@]1(C)O[C@@H]21                  ZINC000100066683
REMARK  2 active torsions:
REMARK  status: ('A' for Active; 'I' for Inactive)
REMARK    1  A    between atoms: C_10  and  C_11
REMARK    2  A    between atoms: C_15  and  C_16
REMARK                            x       y       z     vdW  Elec       q    Type
REMARK                         _______ _______ _______ _____ _____    ______ ____
ROOT
ATOM      1  C   UNL     1       3.254   0.459 -21.530  0.00  0.00    +0.020 C 
ATOM      2  C   UNL     1       3.381   1.605 -22.152  0.00  0.00    +0.036 C 
ATOM      3  C   UNL     1       4.503   2.136 -22.573  0.00  0.00    +0.335 C 
ATOM      4  O   UNL     1       4.221   3.282 -23.145  0.00  0.00    -0.455 OA
ATOM      5  C   UNL     1       2.924   3.461 -23.077  0.00  0.00    +0.216 C 
ATOM      6  C   UNL     1       2.120   4.520 -23.538  0.00  0.00    +0.192 C 
ATOM      7  O   UNL     1       1.435   5.540 -23.992  0.00  0.00    -0.361 OA
ATOM      8  C   UNL     1       0.817   4.550 -23.391  0.00  0.00    +0.097 C 
ATOM      9  C   UNL     1       0.595   3.420 -22.765  0.00  0.00    +0.044 C 
ATOM     10  C   UNL     1      -0.465   5.049 -23.496  0.00  0.00    +0.041 C 
ATOM     11  C   UNL     1      -1.276   4.306 -23.001  0.00  0.00    +0.030 C 
ATOM     12  C   UNL     1      -0.608   3.401 -22.606  0.00  0.00    -0.028 C 
ATOM     13  C   UNL     1      -0.883   2.374 -22.028  0.00  0.00    -0.077 C 
ATOM     14  C   UNL     1      -2.087   2.022 -21.691  0.00  0.00    +0.039 C 
ATOM     15  C   UNL     1       0.193   1.726 -21.819  0.00  0.00    +0.031 C 
ATOM     16  C   UNL     1       1.120   2.500 -22.344  0.00  0.00    +0.016 C 
ATOM     17  O   UNL     1       5.698   1.611 -22.444  0.00  0.00    -0.245 OA
ATOM     18  C   UNL     1       2.407   2.427 -22.466  0.00  0.00    +0.069 C 
ENDROOT
TORSDOF 0
ENDMDL
MODEL 7
REMARK VINA RESULT:    -8.616      3.362      6.988
REMARK INTER + INTRA:          -8.616
REMARK INTER:                  -8.616
REMARK INTRA:                   0.000
REMARK UNBOUND:                 0.000
REMARK  Name = C=C1C(=O)O[C@H]2[C@H]1CC/C(C)=C/CC[C@]1(C)O[C@@H]21                  ZINC000100066683
REMARK  2 active torsions:
REMARK  status: ('A' for Active; 'I' for Inactive)
REMARK    1  A    between atoms: C_10  and  C_11
REMARK    2  A    between atoms: C_15  and  C_16
REMARK                            x       y       z     vdW  Elec       q    Type
REMARK                         _______ _______ _______ _____ _____    ______ ____
ROOT
ATOM      1  C   UNL     1      -0.139   4.632 -23.615  0.00  0.00    +0.020 C 
ATOM      2  C   UNL     1       0.081   3.411 -23.193  0.00  0.00    +0.036 C 
ATOM      3  C   UNL     1      -0.825   2.488 -22.994  0.00  0.00    +0.335 C 
ATOM      4  O   UNL     1      -0.216   1.404 -22.573  0.00  0.00    -0.455 OA
ATOM      5  C   UNL     1       1.068   1.658 -22.513  0.00  0.00    +0.216 C 
ATOM      6  C   UNL     1       2.146   0.841 -22.127  0.00  0.00    +0.192 C 
ATOM      7  O   UNL     1       3.100   0.024 -21.756  0.00  0.00    -0.361 OA
ATOM      8  C   UNL     1       3.392   1.250 -22.122  0.00  0.00    +0.097 C 
ATOM      9  C   UNL     1       3.267   2.486 -22.538  0.00  0.00    +0.044 C 
ATOM     10  C   UNL     1       4.759   1.170 -21.944  0.00  0.00    +0.041 C 
ATOM     11  C   UNL     1       5.308   2.208 -22.220  0.00  0.00    +0.030 C 
ATOM     12  C   UNL     1       4.404   2.911 -22.550  0.00  0.00    -0.028 C 
ATOM     13  C   UNL     1       4.359   4.061 -22.929  0.00  0.00    -0.077 C 
ATOM     14  C   UNL     1       5.397   4.829 -23.063  0.00  0.00    +0.039 C 
ATOM     15  C   UNL     1       3.145   4.363 -23.162  0.00  0.00    +0.031 C 
ATOM     16  C   UNL     1       2.495   3.254 -22.874  0.00  0.00    +0.016 C 
ATOM     17  O   UNL     1      -2.117   2.624 -23.182  0.00  0.00    -0.245 OA
ATOM     18  C   UNL     1       1.251   2.896 -22.895  0.00  0.00    +0.069 C 
ENDROOT
TORSDOF 0
ENDMDL
MODEL 8
REMARK VINA RESULT:    -8.551      1.842      5.145
REMARK INTER + INTRA:          -8.551
REMARK INTER:                  -8.551
REMARK INTRA:                   0.000
REMARK UNBOUND:                 0.000
REMARK  Name = C=C1C(=O)O[C@H]2[C@H]1CC/C(C)=C/CC[C@]1(C)O[C@@H]21                  ZINC000100066683
REMARK  2 active torsions:
REMARK  status: ('A' for Active; 'I' for Inactive)
REMARK    1  A    between atoms: C_10  and  C_11
REMARK    2  A    between atoms: C_15  and  C_16
REMARK                            x       y       z     vdW  Elec       q    Type
REMARK                         _______ _______ _______ _____ _____    ______ ____
ROOT
ATOM      1  C   UNL     1      -2.657   1.886 -21.373  0.00  0.00    +0.020 C 
ATOM      2  C   UNL     1      -2.269   2.786 -22.243  0.00  0.00    +0.036 C 
ATOM      3  C   UNL     1      -3.044   3.623 -22.886  0.00  0.00    +0.335 C 
ATOM      4  O   UNL     1      -2.289   4.361 -23.664  0.00  0.00    -0.455 OA
ATOM      5  C   UNL     1      -1.045   3.980 -23.502  0.00  0.00    +0.216 C 
ATOM      6  C   UNL     1       0.141   4.447 -24.097  0.00  0.00    +0.192 C 
ATOM      7  O   UNL     1       1.203   4.932 -24.691  0.00  0.00    -0.361 OA
ATOM      8  C   UNL     1       1.325   3.953 -23.824  0.00  0.00    +0.097 C 
ATOM      9  C   UNL     1       1.029   3.028 -22.945  0.00  0.00    +0.044 C 
ATOM     10  C   UNL     1       2.696   3.816 -23.901  0.00  0.00    +0.041 C 
ATOM     11  C   UNL     1       3.100   2.943 -23.172  0.00  0.00    +0.030 C 
ATOM     12  C   UNL     1       2.103   2.538 -22.659  0.00  0.00    -0.028 C 
ATOM     13  C   UNL     1       1.900   1.667 -21.843  0.00  0.00    -0.077 C 
ATOM     14  C   UNL     1       2.827   0.929 -21.312  0.00  0.00    +0.039 C 
ATOM     15  C   UNL     1       0.649   1.613 -21.611  0.00  0.00    +0.031 C 
ATOM     16  C   UNL     1       0.156   2.554 -22.388  0.00  0.00    +0.016 C 
ATOM     17  O   UNL     1      -4.349   3.707 -22.771  0.00  0.00    -0.245 OA
ATOM     18  C   UNL     1      -1.034   3.009 -22.625  0.00  0.00    +0.069 C 
ENDROOT
TORSDOF 0
ENDMDL
MODEL 9
REMARK VINA RESULT:    -8.106      3.580      5.507
REMARK INTER + INTRA:          -8.106
REMARK INTER:                  -8.106
REMARK INTRA:                   0.000
REMARK UNBOUND:                 0.000
REMARK  Name = C=C1C(=O)O[C@H]2[C@H]1CC/C(C)=C/CC[C@]1(C)O[C@@H]21                  ZINC000100066683
REMARK  2 active torsions:
REMARK  status: ('A' for Active; 'I' for Inactive)
REMARK    1  A    between atoms: C_10  and  C_11
REMARK    2  A    between atoms: C_15  and  C_16
REMARK                            x       y       z     vdW  Elec       q    Type
REMARK                         _______ _______ _______ _____ _____    ______ ____
ROOT
ATOM      1  C   UNL     1       4.694   3.578 -23.625  0.00  0.00    +0.020 C 
ATOM      2  C   UNL     1       4.115   2.919 -22.652  0.00  0.00    +0.036 C 
ATOM      3  C   UNL     1       4.710   2.414 -21.600  0.00  0.00    +0.335 C 
ATOM      4  O   UNL     1       3.798   1.832 -20.857  0.00  0.00    -0.455 OA
ATOM      5  C   UNL     1       2.639   1.978 -21.450  0.00  0.00    +0.216 C 
ATOM      6  C   UNL     1       1.355   1.543 -21.071  0.00  0.00    +0.192 C 
ATOM      7  O   UNL     1       0.192   1.107 -20.657  0.00  0.00    -0.361 OA
ATOM      8  C   UNL     1       0.279   1.772 -21.785  0.00  0.00    +0.097 C 
ATOM      9  C   UNL     1       0.771   2.440 -22.800  0.00  0.00    +0.044 C 
ATOM     10  C   UNL     1      -1.060   1.737 -22.118  0.00  0.00    +0.041 C 
ATOM     11  C   UNL     1      -1.277   2.302 -23.162  0.00  0.00    +0.030 C 
ATOM     12  C   UNL     1      -0.195   2.677 -23.495  0.00  0.00    -0.028 C 
ATOM     13  C   UNL     1       0.193   3.298 -24.459  0.00  0.00    -0.077 C 
ATOM     14  C   UNL     1      -0.575   3.720 -25.417  0.00  0.00    +0.039 C 
ATOM     15  C   UNL     1       1.453   3.453 -24.360  0.00  0.00    +0.031 C 
ATOM     16  C   UNL     1       1.745   2.850 -23.227  0.00  0.00    +0.016 C 
ATOM     17  O   UNL     1       5.994   2.479 -21.336  0.00  0.00    -0.245 OA
ATOM     18  C   UNL     1       2.834   2.648 -22.556  0.00  0.00    +0.069 C 
ENDROOT
TORSDOF 0
ENDMDL
