MODEL 1
REMARK VINA RESULT:    -9.945      0.000      0.000
REMARK INTER + INTRA:          -7.132
REMARK INTER:                 -10.390
REMARK INTRA:                   3.258
REMARK UNBOUND:                 3.394
REMARK  Name = ZINC000071404290
REMARK  5 active torsions:
REMARK  status: ('A' for Active; 'I' for Inactive)
REMARK    1  A    between atoms: C_1  and  C_2
REMARK    2  A    between atoms: C_2  and  O_4
REMARK    3  A    between atoms: O_4  and  C_5
REMARK    4  A    between atoms: C_9  and  C_10
REMARK    5  A    between atoms: C_19  and  C_20
REMARK                            x       y       z     vdW  Elec       q    Type
REMARK                         _______ _______ _______ _____ _____    ______ ____
ROOT
ATOM      1  C   UNL     1      -3.445   3.227 -23.097  0.00  0.00    +0.276 C 
ATOM      2  C   UNL     1      -2.134   2.968 -22.834  0.00  0.00    +0.155 A 
ATOM      3  O   UNL     1      -1.404   2.740 -21.805  0.00  0.00    -0.463 OA
ATOM      4  C   UNL     1      -0.202   2.564 -22.211  0.00  0.00    +0.199 A 
ATOM      5  C   UNL     1      -0.188   2.682 -23.485  0.00  0.00    -0.005 A 
ATOM      6  C   UNL     1       0.834   2.571 -24.250  0.00  0.00    +0.047 C 
ATOM      7  C   UNL     1      -1.384   2.932 -23.867  0.00  0.00    +0.044 A 
ATOM      8  C   UNL     1      -1.937   3.135 -24.968  0.00  0.00    +0.234 C 
ATOM      9  C   UNL     1      -3.176   3.333 -24.726  0.00  0.00    +0.032 C 
ATOM     10  C   UNL     1      -3.768   3.544 -25.836  0.00  0.00    +0.037 C 
ATOM     11  C   UNL     1      -2.893   3.477 -26.777  0.00  0.00    +0.336 C 
ATOM     12  O   UNL     1      -3.116   3.635 -28.028  0.00  0.00    -0.245 OA
ATOM     13  C   UNL     1      -4.987   3.751 -25.718  0.00  0.00    +0.045 C 
ATOM     14  C   UNL     1      -5.749   3.769 -24.475  0.00  0.00    +0.039 C 
ATOM     15  C   UNL     1      -5.556   3.592 -22.969  0.00  0.00    +0.155 C 
ATOM     16  O   UNL     1      -5.635   3.486 -21.696  0.00  0.00    -0.361 OA
ATOM     17  O   UNL     1      -1.760   3.223 -26.237  0.00  0.00    -0.449 OA
ATOM     18  C   UNL     1      -4.504   3.339 -22.280  0.00  0.00    +0.137 C 
ATOM     19  C   UNL     1      -4.147   3.194 -21.423  0.00  0.00    +0.048 C 
ENDROOT
BRANCH   1  20
ATOM     20  O   UNL     1      -2.933   2.998 -21.644  0.00  0.00    -0.451 OA
BRANCH  20  22
ATOM     21  C   UNL     1      -3.083   3.721 -19.506  0.00  0.00    +0.136 C 
ATOM     22  C   UNL     1      -2.734   3.950 -20.734  0.00  0.00    +0.305 C 
ATOM     23  O   UNL     1      -2.209   5.082 -21.035  0.00  0.00    -0.251 OA
ENDBRANCH  20  22
ENDBRANCH   1  20
TORSDOF 2
ENDMDL
MODEL 2
REMARK VINA RESULT:    -9.547      1.416      4.157
REMARK INTER + INTRA:          -6.711
REMARK INTER:                  -9.967
REMARK INTRA:                   3.255
REMARK UNBOUND:                 3.394
REMARK  Name = ZINC000071404290
REMARK  5 active torsions:
REMARK  status: ('A' for Active; 'I' for Inactive)
REMARK    1  A    between atoms: C_1  and  C_2
REMARK    2  A    between atoms: C_2  and  O_4
REMARK    3  A    between atoms: O_4  and  C_5
REMARK    4  A    between atoms: C_9  and  C_10
REMARK    5  A    between atoms: C_19  and  C_20
REMARK                            x       y       z     vdW  Elec       q    Type
REMARK                         _______ _______ _______ _____ _____    ______ ____
ROOT
ATOM      1  C   UNL     1      -2.069   3.110 -24.226  0.00  0.00    +0.276 C 
ATOM      2  C   UNL     1      -0.986   2.637 -23.550  0.00  0.00    +0.155 A 
ATOM      3  O   UNL     1       0.256   2.423 -23.786  0.00  0.00    -0.463 OA
ATOM      4  C   UNL     1       0.782   1.954 -22.717  0.00  0.00    +0.199 A 
ATOM      5  C   UNL     1      -0.131   1.878 -21.822  0.00  0.00    -0.005 A 
ATOM      6  C   UNL     1       0.013   1.456 -20.621  0.00  0.00    +0.047 C 
ATOM      7  C   UNL     1      -1.222   2.302 -22.341  0.00  0.00    +0.044 A 
ATOM      8  C   UNL     1      -2.395   2.446 -21.938  0.00  0.00    +0.234 C 
ATOM      9  C   UNL     1      -3.064   2.920 -22.918  0.00  0.00    +0.032 C 
ATOM     10  C   UNL     1      -4.270   3.078 -22.536  0.00  0.00    +0.037 C 
ATOM     11  C   UNL     1      -4.355   2.701 -21.308  0.00  0.00    +0.336 C 
ATOM     12  O   UNL     1      -5.412   2.715 -20.586  0.00  0.00    -0.245 OA
ATOM     13  C   UNL     1      -5.015   3.538 -23.416  0.00  0.00    +0.045 C 
ATOM     14  C   UNL     1      -4.636   3.890 -24.779  0.00  0.00    +0.039 C 
ATOM     15  C   UNL     1      -3.415   3.902 -25.699  0.00  0.00    +0.155 C 
ATOM     16  O   UNL     1      -2.548   4.001 -26.635  0.00  0.00    -0.361 OA
ATOM     17  O   UNL     1      -3.192   2.310 -20.941  0.00  0.00    -0.449 OA
ATOM     18  C   UNL     1      -2.199   3.549 -25.488  0.00  0.00    +0.137 C 
ATOM     19  C   UNL     1      -1.336   3.464 -25.850  0.00  0.00    +0.048 C 
ENDROOT
BRANCH   1  20
ATOM     20  O   UNL     1      -0.669   3.000 -24.901  0.00  0.00    -0.451 OA
BRANCH  20  22
ATOM     21  C   UNL     1       1.174   3.892 -25.860  0.00  0.00    +0.136 C 
ATOM     22  C   UNL     1       0.237   3.975 -24.969  0.00  0.00    +0.305 C 
ATOM     23  O   UNL     1       0.208   4.988 -24.182  0.00  0.00    -0.251 OA
ENDBRANCH  20  22
ENDBRANCH   1  20
TORSDOF 2
ENDMDL
MODEL 3
REMARK VINA RESULT:    -9.376      1.531      4.544
REMARK INTER + INTRA:          -6.530
REMARK INTER:                  -9.727
REMARK INTRA:                   3.197
REMARK UNBOUND:                 3.394
REMARK  Name = ZINC000071404290
REMARK  5 active torsions:
REMARK  status: ('A' for Active; 'I' for Inactive)
REMARK    1  A    between atoms: C_1  and  C_2
REMARK    2  A    between atoms: C_2  and  O_4
REMARK    3  A    between atoms: O_4  and  C_5
REMARK    4  A    between atoms: C_9  and  C_10
REMARK    5  A    between atoms: C_19  and  C_20
REMARK                            x       y       z     vdW  Elec       q    Type
REMARK                         _______ _______ _______ _____ _____    ______ ____
ROOT
ATOM      1  C   UNL     1      -1.721   2.896 -23.272  0.00  0.00    +0.276 C 
ATOM      2  C   UNL     1      -1.912   3.158 -24.595  0.00  0.00    +0.155 A 
ATOM      3  O   UNL     1      -1.198   3.232 -25.656  0.00  0.00    -0.463 OA
ATOM      4  C   UNL     1      -1.975   3.526 -26.631  0.00  0.00    +0.199 A 
ATOM      5  C   UNL     1      -3.166   3.634 -26.174  0.00  0.00    -0.005 A 
ATOM      6  C   UNL     1      -4.218   3.918 -26.848  0.00  0.00    +0.047 C 
ATOM      7  C   UNL     1      -3.124   3.406 -24.914  0.00  0.00    +0.044 A 
ATOM      8  C   UNL     1      -3.964   3.376 -23.992  0.00  0.00    +0.234 C 
ATOM      9  C   UNL     1      -3.327   3.088 -22.923  0.00  0.00    +0.032 C 
ATOM     10  C   UNL     1      -4.162   3.051 -21.961  0.00  0.00    +0.037 C 
ATOM     11  C   UNL     1      -5.330   3.317 -22.431  0.00  0.00    +0.336 C 
ATOM     12  O   UNL     1      -6.419   3.372 -21.762  0.00  0.00    -0.245 OA
ATOM     13  C   UNL     1      -3.646   2.777 -20.865  0.00  0.00    +0.045 C 
ATOM     14  C   UNL     1      -2.237   2.510 -20.610  0.00  0.00    +0.039 C 
ATOM     15  C   UNL     1      -0.899   2.428 -21.345  0.00  0.00    +0.155 C 
ATOM     16  O   UNL     1       0.313   2.306 -21.741  0.00  0.00    -0.361 OA
ATOM     17  O   UNL     1      -5.204   3.519 -23.690  0.00  0.00    -0.449 OA
ATOM     18  C   UNL     1      -0.608   2.600 -22.583  0.00  0.00    +0.137 C 
ATOM     19  C   UNL     1       0.072   2.606 -23.232  0.00  0.00    +0.048 C 
ENDROOT
BRANCH   1  20
ATOM     20  O   UNL     1      -0.538   2.888 -24.286  0.00  0.00    -0.451 OA
BRANCH  20  22
ATOM     21  C   UNL     1       1.454   3.621 -25.064  0.00  0.00    +0.136 C 
ATOM     22  C   UNL     1       0.332   3.880 -24.470  0.00  0.00    +0.305 C 
ATOM     23  O   UNL     1       0.092   5.078 -24.077  0.00  0.00    -0.251 OA
ENDBRANCH  20  22
ENDBRANCH   1  20
TORSDOF 2
ENDMDL
MODEL 4
REMARK VINA RESULT:    -9.100      1.332      2.261
REMARK INTER + INTRA:          -6.238
REMARK INTER:                  -9.588
REMARK INTRA:                   3.350
REMARK UNBOUND:                 3.394
REMARK  Name = ZINC000071404290
REMARK  5 active torsions:
REMARK  status: ('A' for Active; 'I' for Inactive)
REMARK    1  A    between atoms: C_1  and  C_2
REMARK    2  A    between atoms: C_2  and  O_4
REMARK    3  A    between atoms: O_4  and  C_5
REMARK    4  A    between atoms: C_9  and  C_10
REMARK    5  A    between atoms: C_19  and  C_20
REMARK                            x       y       z     vdW  Elec       q    Type
REMARK                         _______ _______ _______ _____ _____    ______ ____
ROOT
ATOM      1  C   UNL     1      -2.131   3.215 -22.582  0.00  0.00    +0.276 C 
ATOM      2  C   UNL     1      -0.863   3.240 -23.079  0.00  0.00    +0.155 A 
ATOM      3  O   UNL     1       0.327   3.062 -22.639  0.00  0.00    -0.463 OA
ATOM      4  C   UNL     1       1.135   3.224 -23.619  0.00  0.00    +0.199 A 
ATOM      5  C   UNL     1       0.447   3.501 -24.663  0.00  0.00    -0.005 A 
ATOM      6  C   UNL     1       0.903   3.730 -25.838  0.00  0.00    +0.047 C 
ATOM      7  C   UNL     1      -0.789   3.510 -24.325  0.00  0.00    +0.044 A 
ATOM      8  C   UNL     1      -1.866   3.713 -24.919  0.00  0.00    +0.234 C 
ATOM      9  C   UNL     1      -2.795   3.584 -24.052  0.00  0.00    +0.032 C 
ATOM     10  C   UNL     1      -3.912   3.788 -24.632  0.00  0.00    +0.037 C 
ATOM     11  C   UNL     1      -3.680   4.046 -25.872  0.00  0.00    +0.336 C 
ATOM     12  O   UNL     1      -4.558   4.302 -26.767  0.00  0.00    -0.245 OA
ATOM     13  C   UNL     1      -4.892   3.687 -23.876  0.00  0.00    +0.045 C 
ATOM     14  C   UNL     1      -4.863   3.371 -22.453  0.00  0.00    +0.039 C 
ATOM     15  C   UNL     1      -3.870   3.057 -21.334  0.00  0.00    +0.155 C 
ATOM     16  O   UNL     1      -3.238   2.776 -20.256  0.00  0.00    -0.361 OA
ATOM     17  O   UNL     1      -2.412   3.999 -26.047  0.00  0.00    -0.449 OA
ATOM     18  C   UNL     1      -2.590   2.973 -21.345  0.00  0.00    +0.137 C 
ATOM     19  C   UNL     1      -1.813   2.809 -20.841  0.00  0.00    +0.048 C 
ENDROOT
BRANCH   1  20
ATOM     20  O   UNL     1      -0.894   2.932 -21.679  0.00  0.00    -0.451 OA
BRANCH  20  22
ATOM     21  C   UNL     1       0.456   1.599 -20.448  0.00  0.00    +0.136 C 
ATOM     22  C   UNL     1      -0.365   1.732 -21.443  0.00  0.00    +0.305 C 
ATOM     23  O   UNL     1      -0.643   0.711 -22.168  0.00  0.00    -0.251 OA
ENDBRANCH  20  22
ENDBRANCH   1  20
TORSDOF 2
ENDMDL
MODEL 5
REMARK VINA RESULT:    -9.061      1.671      5.503
REMARK INTER + INTRA:          -6.197
REMARK INTER:                  -9.475
REMARK INTRA:                   3.279
REMARK UNBOUND:                 3.394
REMARK  Name = ZINC000071404290
REMARK  5 active torsions:
REMARK  status: ('A' for Active; 'I' for Inactive)
REMARK    1  A    between atoms: C_1  and  C_2
REMARK    2  A    between atoms: C_2  and  O_4
REMARK    3  A    between atoms: O_4  and  C_5
REMARK    4  A    between atoms: C_9  and  C_10
REMARK    5  A    between atoms: C_19  and  C_20
REMARK                            x       y       z     vdW  Elec       q    Type
REMARK                         _______ _______ _______ _____ _____    ______ ____
ROOT
ATOM      1  C   UNL     1      -1.060   3.201 -23.871  0.00  0.00    +0.276 C 
ATOM      2  C   UNL     1      -2.309   3.239 -23.330  0.00  0.00    +0.155 A 
ATOM      3  O   UNL     1      -3.483   3.608 -23.689  0.00  0.00    -0.463 OA
ATOM      4  C   UNL     1      -4.278   3.388 -22.709  0.00  0.00    +0.199 A 
ATOM      5  C   UNL     1      -3.599   2.885 -21.747  0.00  0.00    -0.005 A 
ATOM      6  C   UNL     1      -4.047   2.533 -20.600  0.00  0.00    +0.047 C 
ATOM      7  C   UNL     1      -2.382   2.794 -22.135  0.00  0.00    +0.044 A 
ATOM      8  C   UNL     1      -1.319   2.388 -21.623  0.00  0.00    +0.234 C 
ATOM      9  C   UNL     1      -0.404   2.545 -22.501  0.00  0.00    +0.032 C 
ATOM     10  C   UNL     1       0.698   2.138 -22.004  0.00  0.00    +0.037 C 
ATOM     11  C   UNL     1       0.470   1.723 -20.807  0.00  0.00    +0.336 C 
ATOM     12  O   UNL     1       1.336   1.241 -19.997  0.00  0.00    -0.245 OA
ATOM     13  C   UNL     1       1.663   2.245 -22.778  0.00  0.00    +0.045 C 
ATOM     14  C   UNL     1       1.633   2.773 -24.137  0.00  0.00    +0.039 C 
ATOM     15  C   UNL     1       0.653   3.357 -25.155  0.00  0.00    +0.155 C 
ATOM     16  O   UNL     1       0.029   3.862 -26.152  0.00  0.00    -0.361 OA
ATOM     17  O   UNL     1      -0.779   1.879 -20.574  0.00  0.00    -0.449 OA
ATOM     18  C   UNL     1      -0.609   3.576 -25.078  0.00  0.00    +0.137 C 
ATOM     19  C   UNL     1      -1.375   3.896 -25.519  0.00  0.00    +0.048 C 
ENDROOT
BRANCH   1  20
ATOM     20  O   UNL     1      -2.280   3.748 -24.670  0.00  0.00    -0.451 OA
BRANCH  20  22
ATOM     21  C   UNL     1      -3.370   3.691 -26.650  0.00  0.00    +0.136 C 
ATOM     22  C   UNL     1      -2.974   3.071 -25.583  0.00  0.00    +0.305 C 
ATOM     23  O   UNL     1      -3.261   1.828 -25.438  0.00  0.00    -0.251 OA
ENDBRANCH  20  22
ENDBRANCH   1  20
TORSDOF 2
ENDMDL
MODEL 6
REMARK VINA RESULT:    -9.016      1.461      3.956
REMARK INTER + INTRA:          -6.149
REMARK INTER:                  -9.446
REMARK INTRA:                   3.297
REMARK UNBOUND:                 3.394
REMARK  Name = ZINC000071404290
REMARK  5 active torsions:
REMARK  status: ('A' for Active; 'I' for Inactive)
REMARK    1  A    between atoms: C_1  and  C_2
REMARK    2  A    between atoms: C_2  and  O_4
REMARK    3  A    between atoms: O_4  and  C_5
REMARK    4  A    between atoms: C_9  and  C_10
REMARK    5  A    between atoms: C_19  and  C_20
REMARK                            x       y       z     vdW  Elec       q    Type
REMARK                         _______ _______ _______ _____ _____    ______ ____
ROOT
ATOM      1  C   UNL     1      -1.294   2.438 -22.640  0.00  0.00    +0.276 C 
ATOM      2  C   UNL     1      -2.506   2.864 -23.089  0.00  0.00    +0.155 A 
ATOM      3  O   UNL     1      -3.729   2.800 -22.712  0.00  0.00    -0.463 OA
ATOM      4  C   UNL     1      -4.441   3.412 -23.584  0.00  0.00    +0.199 A 
ATOM      5  C   UNL     1      -3.660   3.854 -24.497  0.00  0.00    -0.005 A 
ATOM      6  C   UNL     1      -4.004   4.518 -25.538  0.00  0.00    +0.047 C 
ATOM      7  C   UNL     1      -2.465   3.513 -24.188  0.00  0.00    +0.044 A 
ATOM      8  C   UNL     1      -1.340   3.672 -24.703  0.00  0.00    +0.234 C 
ATOM      9  C   UNL     1      -0.498   3.102 -23.930  0.00  0.00    +0.032 C 
ATOM     10  C   UNL     1       0.665   3.248 -24.432  0.00  0.00    +0.037 C 
ATOM     11  C   UNL     1       0.550   3.915 -25.527  0.00  0.00    +0.336 C 
ATOM     12  O   UNL     1       1.505   4.255 -26.308  0.00  0.00    -0.245 OA
ATOM     13  C   UNL     1       1.568   2.728 -23.756  0.00  0.00    +0.045 C 
ATOM     14  C   UNL     1       1.407   2.002 -22.502  0.00  0.00    +0.039 C 
ATOM     15  C   UNL     1       0.318   1.563 -21.524  0.00  0.00    +0.155 C 
ATOM     16  O   UNL     1      -0.410   1.096 -20.580  0.00  0.00    -0.361 OA
ATOM     17  O   UNL     1      -0.693   4.176 -25.692  0.00  0.00    -0.449 OA
ATOM     18  C   UNL     1      -0.953   1.741 -21.545  0.00  0.00    +0.137 C 
ATOM     19  C   UNL     1      -1.771   1.588 -21.108  0.00  0.00    +0.048 C 
ENDROOT
BRANCH   1  20
ATOM     20  O   UNL     1      -2.606   2.142 -21.855  0.00  0.00    -0.451 OA
BRANCH  20  22
ATOM     21  C   UNL     1      -4.025   2.382 -20.110  0.00  0.00    +0.136 C 
ATOM     22  C   UNL     1      -3.104   2.888 -20.869  0.00  0.00    +0.305 C 
ATOM     23  O   UNL     1      -2.700   4.087 -20.651  0.00  0.00    -0.251 OA
ENDBRANCH  20  22
ENDBRANCH   1  20
TORSDOF 2
ENDMDL
MODEL 7
REMARK VINA RESULT:    -8.652      1.486      3.964
REMARK INTER + INTRA:          -5.764
REMARK INTER:                  -9.012
REMARK INTRA:                   3.248
REMARK UNBOUND:                 3.394
REMARK  Name = ZINC000071404290
REMARK  5 active torsions:
REMARK  status: ('A' for Active; 'I' for Inactive)
REMARK    1  A    between atoms: C_1  and  C_2
REMARK    2  A    between atoms: C_2  and  O_4
REMARK    3  A    between atoms: O_4  and  C_5
REMARK    4  A    between atoms: C_9  and  C_10
REMARK    5  A    between atoms: C_19  and  C_20
REMARK                            x       y       z     vdW  Elec       q    Type
REMARK                         _______ _______ _______ _____ _____    ______ ____
ROOT
ATOM      1  C   UNL     1      -1.003   3.064 -23.230  0.00  0.00    +0.276 C 
ATOM      2  C   UNL     1      -1.932   2.897 -22.249  0.00  0.00    +0.155 A 
ATOM      3  O   UNL     1      -1.945   2.628 -20.996  0.00  0.00    -0.463 OA
ATOM      4  C   UNL     1      -3.167   2.603 -20.614  0.00  0.00    +0.199 A 
ATOM      5  C   UNL     1      -3.908   2.856 -21.627  0.00  0.00    -0.005 A 
ATOM      6  C   UNL     1      -5.188   2.919 -21.638  0.00  0.00    +0.047 C 
ATOM      7  C   UNL     1      -3.141   3.037 -22.636  0.00  0.00    +0.044 A 
ATOM      8  C   UNL     1      -3.316   3.304 -23.842  0.00  0.00    +0.234 C 
ATOM      9  C   UNL     1      -2.157   3.365 -24.377  0.00  0.00    +0.032 C 
ATOM     10  C   UNL     1      -2.304   3.638 -25.614  0.00  0.00    +0.037 C 
ATOM     11  C   UNL     1      -3.563   3.749 -25.854  0.00  0.00    +0.336 C 
ATOM     12  O   UNL     1      -4.095   4.018 -26.987  0.00  0.00    -0.245 OA
ATOM     13  C   UNL     1      -1.232   3.721 -26.236  0.00  0.00    +0.045 C 
ATOM     14  C   UNL     1       0.107   3.540 -25.689  0.00  0.00    +0.039 C 
ATOM     15  C   UNL     1       0.810   3.223 -24.369  0.00  0.00    +0.155 C 
ATOM     16  O   UNL     1       1.604   2.977 -23.395  0.00  0.00    -0.361 OA
ATOM     17  O   UNL     1      -4.187   3.542 -24.755  0.00  0.00    -0.449 OA
ATOM     18  C   UNL     1       0.337   2.994 -23.198  0.00  0.00    +0.137 C 
ATOM     19  C   UNL     1       0.534   2.792 -22.302  0.00  0.00    +0.048 C 
ENDROOT
BRANCH   1  20
ATOM     20  O   UNL     1      -0.593   2.729 -21.765  0.00  0.00    -0.451 OA
BRANCH  20  22
ATOM     21  C   UNL     1       0.758   1.544 -20.393  0.00  0.00    +0.136 C 
ATOM     22  C   UNL     1      -0.127   1.556 -21.339  0.00  0.00    +0.305 C 
ATOM     23  O   UNL     1      -0.528   0.443 -21.837  0.00  0.00    -0.251 OA
ENDBRANCH  20  22
ENDBRANCH   1  20
TORSDOF 2
ENDMDL
MODEL 8
REMARK VINA RESULT:    -8.402      1.657      2.398
REMARK INTER + INTRA:          -5.500
REMARK INTER:                  -8.815
REMARK INTRA:                   3.315
REMARK UNBOUND:                 3.394
REMARK  Name = ZINC000071404290
REMARK  5 active torsions:
REMARK  status: ('A' for Active; 'I' for Inactive)
REMARK    1  A    between atoms: C_1  and  C_2
REMARK    2  A    between atoms: C_2  and  O_4
REMARK    3  A    between atoms: O_4  and  C_5
REMARK    4  A    between atoms: C_9  and  C_10
REMARK    5  A    between atoms: C_19  and  C_20
REMARK                            x       y       z     vdW  Elec       q    Type
REMARK                         _______ _______ _______ _____ _____    ______ ____
ROOT
ATOM      1  C   UNL     1      -2.196   2.867 -23.074  0.00  0.00    +0.276 C 
ATOM      2  C   UNL     1      -1.370   2.297 -22.154  0.00  0.00    +0.155 A 
ATOM      3  O   UNL     1      -1.478   1.738 -21.006  0.00  0.00    -0.463 OA
ATOM      4  C   UNL     1      -0.304   1.392 -20.627  0.00  0.00    +0.199 A 
ATOM      5  C   UNL     1       0.527   1.737 -21.538  0.00  0.00    -0.005 A 
ATOM      6  C   UNL     1       1.796   1.558 -21.518  0.00  0.00    +0.047 C 
ATOM      7  C   UNL     1      -0.135   2.296 -22.480  0.00  0.00    +0.044 A 
ATOM      8  C   UNL     1       0.154   2.807 -23.581  0.00  0.00    +0.234 C 
ATOM      9  C   UNL     1      -0.943   3.212 -24.098  0.00  0.00    +0.032 C 
ATOM     10  C   UNL     1      -0.678   3.741 -25.227  0.00  0.00    +0.037 C 
ATOM     11  C   UNL     1       0.593   3.667 -25.418  0.00  0.00    +0.336 C 
ATOM     12  O   UNL     1       1.228   4.095 -26.443  0.00  0.00    -0.245 OA
ATOM     13  C   UNL     1      -1.680   4.171 -25.822  0.00  0.00    +0.045 C 
ATOM     14  C   UNL     1      -3.058   4.120 -25.352  0.00  0.00    +0.039 C 
ATOM     15  C   UNL     1      -3.881   3.634 -24.159  0.00  0.00    +0.155 C 
ATOM     16  O   UNL     1      -4.762   3.314 -23.286  0.00  0.00    -0.361 OA
ATOM     17  O   UNL     1       1.105   3.088 -24.397  0.00  0.00    -0.449 OA
ATOM     18  C   UNL     1      -3.526   3.045 -23.076  0.00  0.00    +0.137 C 
ATOM     19  C   UNL     1      -3.808   2.675 -22.259  0.00  0.00    +0.048 C 
ENDROOT
BRANCH   1  20
ATOM     20  O   UNL     1      -2.743   2.274 -21.742  0.00  0.00    -0.451 OA
BRANCH  20  22
ATOM     21  C   UNL     1      -4.207   2.477 -20.031  0.00  0.00    +0.136 C 
ATOM     22  C   UNL     1      -3.234   2.980 -20.724  0.00  0.00    +0.305 C 
ATOM     23  O   UNL     1      -2.775   4.136 -20.411  0.00  0.00    -0.251 OA
ENDBRANCH  20  22
ENDBRANCH   1  20
TORSDOF 2
ENDMDL
MODEL 9
REMARK VINA RESULT:    -8.385      1.637      4.402
REMARK INTER + INTRA:          -5.481
REMARK INTER:                  -8.875
REMARK INTRA:                   3.394
REMARK UNBOUND:                 3.394
REMARK  Name = ZINC000071404290
REMARK  5 active torsions:
REMARK  status: ('A' for Active; 'I' for Inactive)
REMARK    1  A    between atoms: C_1  and  C_2
REMARK    2  A    between atoms: C_2  and  O_4
REMARK    3  A    between atoms: O_4  and  C_5
REMARK    4  A    between atoms: C_9  and  C_10
REMARK    5  A    between atoms: C_19  and  C_20
REMARK                            x       y       z     vdW  Elec       q    Type
REMARK                         _______ _______ _______ _____ _____    ______ ____
ROOT
ATOM      1  C   UNL     1      -2.260   3.291 -23.558  0.00  0.00    +0.276 C 
ATOM      2  C   UNL     1      -1.315   3.439 -24.527  0.00  0.00    +0.155 A 
ATOM      3  O   UNL     1      -1.253   3.893 -25.724  0.00  0.00    -0.463 OA
ATOM      4  C   UNL     1      -0.047   3.758 -26.132  0.00  0.00    +0.199 A 
ATOM      5  C   UNL     1       0.636   3.222 -25.190  0.00  0.00    -0.005 A 
ATOM      6  C   UNL     1       1.883   2.931 -25.224  0.00  0.00    +0.047 C 
ATOM      7  C   UNL     1      -0.152   3.027 -24.200  0.00  0.00    +0.044 A 
ATOM      8  C   UNL     1      -0.029   2.549 -23.054  0.00  0.00    +0.234 C 
ATOM      9  C   UNL     1      -1.180   2.614 -22.503  0.00  0.00    +0.032 C 
ATOM     10  C   UNL     1      -1.086   2.131 -21.327  0.00  0.00    +0.037 C 
ATOM     11  C   UNL     1       0.133   1.760 -21.141  0.00  0.00    +0.336 C 
ATOM     12  O   UNL     1       0.606   1.228 -20.077  0.00  0.00    -0.245 OA
ATOM     13  C   UNL     1      -2.155   2.145 -20.695  0.00  0.00    +0.045 C 
ATOM     14  C   UNL     1      -3.439   2.645 -21.171  0.00  0.00    +0.039 C 
ATOM     15  C   UNL     1      -4.072   3.283 -22.408  0.00  0.00    +0.155 C 
ATOM     16  O   UNL     1      -4.808   3.816 -23.310  0.00  0.00    -0.361 OA
ATOM     17  O   UNL     1       0.785   2.020 -22.212  0.00  0.00    -0.449 OA
ATOM     18  C   UNL     1      -3.565   3.603 -23.542  0.00  0.00    +0.137 C 
ATOM     19  C   UNL     1      -3.722   3.974 -24.391  0.00  0.00    +0.048 C 
ENDROOT
BRANCH   1  20
ATOM     20  O   UNL     1      -2.602   3.916 -24.943  0.00  0.00    -0.451 OA
BRANCH  20  22
ATOM     21  C   UNL     1      -3.624   3.999 -26.958  0.00  0.00    +0.136 C 
ATOM     22  C   UNL     1      -3.246   3.301 -25.933  0.00  0.00    +0.305 C 
ATOM     23  O   UNL     1      -3.503   2.044 -25.902  0.00  0.00    -0.251 OA
ENDBRANCH  20  22
ENDBRANCH   1  20
TORSDOF 2
ENDMDL
