MODEL 1
REMARK VINA RESULT:   -10.968      0.000      0.000
REMARK INTER + INTRA:         -11.732
REMARK INTER:                 -11.611
REMARK INTRA:                  -0.121
REMARK UNBOUND:                -0.123
REMARK  Name = ZINC000096316249
REMARK  3 active torsions:
REMARK  status: ('A' for Active; 'I' for Inactive)
REMARK    1  A    between atoms: C_1  and  O_2
REMARK    2  A    between atoms: O_2  and  C_3
REMARK    3  A    between atoms: N_18  and  C_19
REMARK                            x       y       z     vdW  Elec       q    Type
REMARK                         _______ _______ _______ _____ _____    ______ ____
ROOT
ATOM      1  C   UNL     1       1.140   1.867 -21.958  0.00  0.00    +0.163 A 
ATOM      2  C   UNL     1       1.934   2.026 -22.938  0.00  0.00    +0.065 A 
ATOM      3  C   UNL     1       1.507   2.437 -24.046  0.00  0.00    +0.025 A 
ATOM      4  C   UNL     1       0.284   2.695 -24.187  0.00  0.00    -0.021 A 
ATOM      5  C   UNL     1      -0.526   2.545 -23.227  0.00  0.00    +0.013 A 
ATOM      6  C   UNL     1      -1.748   2.802 -23.369  0.00  0.00    +0.054 C 
ATOM      7  C   UNL     1      -3.156   3.063 -23.417  0.00  0.00    +0.067 C 
ATOM      8  C   UNL     1      -3.667   3.530 -24.656  0.00  0.00    +0.132 C 
ATOM      9  N   UNL     1      -2.750   3.694 -25.724  0.00  0.00    +0.236 N 
ATOM     10  H   UNL     1      -3.055   4.026 -26.639  0.00  0.00    +0.203 HD
ATOM     11  C   UNL     1      -3.122   4.103 -26.854  0.00  0.00    +0.190 C 
ATOM     12  C   UNL     1      -1.380   3.372 -25.456  0.00  0.00    +0.073 C 
ATOM     13  C   UNL     1      -2.176   3.215 -24.480  0.00  0.00    +0.053 C 
ATOM     14  C   UNL     1      -3.413   3.475 -24.623  0.00  0.00    +0.015 C 
ATOM     15  C   UNL     1      -4.207   3.321 -23.660  0.00  0.00    +0.069 C 
ATOM     16  C   UNL     1      -3.780   2.905 -22.538  0.00  0.00    +0.208 C 
ATOM     17  O   UNL     1      -3.467   2.501 -21.390  0.00  0.00    -0.343 OA
ATOM     18  C   UNL     1      -4.510   2.470 -20.689  0.00  0.00    +0.191 C 
ATOM     19  C   UNL     1      -5.469   2.856 -21.406  0.00  0.00    +0.191 C 
ATOM     20  O   UNL     1      -5.018   3.125 -22.548  0.00  0.00    -0.343 OA
ATOM     21  C   UNL     1      -2.559   2.647 -22.394  0.00  0.00    +0.244 C 
ATOM     22  O   UNL     1      -1.459   2.170 -21.459  0.00  0.00    -0.479 OA
ATOM     23  C   UNL     1      -0.158   3.115 -25.315  0.00  0.00    +0.091 C 
ATOM     24 BR   UNL     1       2.299   2.592 -25.008  0.00  0.00    -0.050 Br
ATOM     25  C   UNL     1      -0.097   2.128 -22.105  0.00  0.00    +0.167 A 
ENDROOT
BRANCH   1  27
ATOM     26  C   UNL     1       2.810   1.457 -20.620  0.00  0.00    +0.277 C 
ATOM     27  O   UNL     1       1.574   1.454 -20.853  0.00  0.00    -0.491 OA
ENDBRANCH   1  27
TORSDOF 1
ENDMDL
MODEL 2
REMARK VINA RESULT:   -10.379      2.070      3.478
REMARK INTER + INTRA:         -11.109
REMARK INTER:                 -10.988
REMARK INTRA:                  -0.121
REMARK UNBOUND:                -0.123
REMARK  Name = ZINC000096316249
REMARK  3 active torsions:
REMARK  status: ('A' for Active; 'I' for Inactive)
REMARK    1  A    between atoms: C_1  and  O_2
REMARK    2  A    between atoms: O_2  and  C_3
REMARK    3  A    between atoms: N_18  and  C_19
REMARK                            x       y       z     vdW  Elec       q    Type
REMARK                         _______ _______ _______ _____ _____    ______ ____
ROOT
ATOM      1  C   UNL     1       1.746   2.180 -23.758  0.00  0.00    +0.163 A 
ATOM      2  C   UNL     1       2.052   1.852 -22.568  0.00  0.00    +0.065 A 
ATOM      3  C   UNL     1       1.175   1.812 -21.670  0.00  0.00    +0.025 A 
ATOM      4  C   UNL     1      -0.018   2.099 -21.949  0.00  0.00    -0.021 A 
ATOM      5  C   UNL     1      -0.348   2.429 -23.125  0.00  0.00    +0.013 A 
ATOM      6  C   UNL     1      -1.539   2.716 -23.403  0.00  0.00    +0.054 C 
ATOM      7  C   UNL     1      -2.862   3.062 -23.832  0.00  0.00    +0.067 C 
ATOM      8  C   UNL     1      -3.875   3.026 -22.838  0.00  0.00    +0.132 C 
ATOM      9  N   UNL     1      -3.493   2.655 -21.524  0.00  0.00    +0.236 N 
ATOM     10  H   UNL     1      -4.173   2.610 -20.766  0.00  0.00    +0.203 HD
ATOM     11  C   UNL     1      -4.329   2.599 -20.587  0.00  0.00    +0.190 C 
ATOM     12  C   UNL     1      -2.110   2.348 -21.315  0.00  0.00    +0.073 C 
ATOM     13  C   UNL     1      -2.420   2.676 -22.502  0.00  0.00    +0.053 C 
ATOM     14  C   UNL     1      -3.626   2.967 -22.784  0.00  0.00    +0.015 C 
ATOM     15  C   UNL     1      -3.940   3.293 -23.957  0.00  0.00    +0.069 C 
ATOM     16  C   UNL     1      -3.056   3.334 -24.869  0.00  0.00    +0.208 C 
ATOM     17  O   UNL     1      -2.266   3.407 -25.843  0.00  0.00    -0.343 OA
ATOM     18  C   UNL     1      -2.925   3.761 -26.854  0.00  0.00    +0.191 C 
ATOM     19  C   UNL     1      -4.124   3.906 -26.502  0.00  0.00    +0.191 C 
ATOM     20  O   UNL     1      -4.205   3.642 -25.276  0.00  0.00    -0.343 OA
ATOM     21  C   UNL     1      -1.865   3.048 -24.593  0.00  0.00    +0.244 C 
ATOM     22  O   UNL     1      -0.440   2.896 -25.103  0.00  0.00    -0.479 OA
ATOM     23  C   UNL     1      -0.918   2.061 -21.037  0.00  0.00    +0.091 C 
ATOM     24 BR   UNL     1       1.487   1.487 -20.498  0.00  0.00    -0.050 Br
ATOM     25  C   UNL     1       0.538   2.470 -24.036  0.00  0.00    +0.167 A 
ENDROOT
BRANCH   1  27
ATOM     26  C   UNL     1       3.815   1.903 -24.379  0.00  0.00    +0.277 C 
ATOM     27  O   UNL     1       2.628   2.218 -24.652  0.00  0.00    -0.491 OA
ENDBRANCH   1  27
TORSDOF 1
ENDMDL
MODEL 3
REMARK VINA RESULT:    -9.885      1.811      4.895
REMARK INTER + INTRA:         -10.585
REMARK INTER:                 -10.464
REMARK INTRA:                  -0.121
REMARK UNBOUND:                -0.123
REMARK  Name = ZINC000096316249
REMARK  3 active torsions:
REMARK  status: ('A' for Active; 'I' for Inactive)
REMARK    1  A    between atoms: C_1  and  O_2
REMARK    2  A    between atoms: O_2  and  C_3
REMARK    3  A    between atoms: N_18  and  C_19
REMARK                            x       y       z     vdW  Elec       q    Type
REMARK                         _______ _______ _______ _____ _____    ______ ____
ROOT
ATOM      1  C   UNL     1      -4.313   2.945 -22.246  0.00  0.00    +0.163 A 
ATOM      2  C   UNL     1      -4.826   3.485 -23.276  0.00  0.00    +0.065 A 
ATOM      3  C   UNL     1      -4.101   3.841 -24.238  0.00  0.00    +0.025 A 
ATOM      4  C   UNL     1      -2.857   3.662 -24.182  0.00  0.00    -0.021 A 
ATOM      5  C   UNL     1      -2.323   3.127 -23.168  0.00  0.00    +0.013 A 
ATOM      6  C   UNL     1      -1.080   2.949 -23.113  0.00  0.00    +0.054 C 
ATOM      7  C   UNL     1       0.320   2.698 -22.943  0.00  0.00    +0.067 C 
ATOM      8  C   UNL     1       1.164   3.090 -24.014  0.00  0.00    +0.132 C 
ATOM      9  N   UNL     1       0.554   3.688 -25.145  0.00  0.00    +0.236 N 
ATOM     10  H   UNL     1       1.106   3.992 -25.947  0.00  0.00    +0.203 HD
ATOM     11  C   UNL     1       1.231   4.064 -26.136  0.00  0.00    +0.190 C 
ATOM     12  C   UNL     1      -0.868   3.845 -25.106  0.00  0.00    +0.073 C 
ATOM     13  C   UNL     1      -0.353   3.306 -24.078  0.00  0.00    +0.053 C 
ATOM     14  C   UNL     1       0.905   3.125 -24.022  0.00  0.00    +0.015 C 
ATOM     15  C   UNL     1       1.423   2.592 -23.008  0.00  0.00    +0.069 C 
ATOM     16  C   UNL     1       0.693   2.230 -22.032  0.00  0.00    +0.208 C 
ATOM     17  O   UNL     1       0.069   1.836 -21.015  0.00  0.00    -0.343 OA
ATOM     18  C   UNL     1       0.905   1.359 -20.205  0.00  0.00    +0.191 C 
ATOM     19  C   UNL     1       2.046   1.458 -20.724  0.00  0.00    +0.191 C 
ATOM     20  O   UNL     1       1.916   1.997 -21.852  0.00  0.00    -0.343 OA
ATOM     21  C   UNL     1      -0.549   2.408 -22.085  0.00  0.00    +0.244 C 
ATOM     22  O   UNL     1      -1.890   2.249 -21.385  0.00  0.00    -0.479 OA
ATOM     23  C   UNL     1      -2.112   4.023 -25.161  0.00  0.00    +0.091 C 
ATOM     24 BR   UNL     1      -4.616   4.374 -25.252  0.00  0.00    -0.050 Br
ATOM     25  C   UNL     1      -3.054   2.766 -22.193  0.00  0.00    +0.167 A 
ENDROOT
BRANCH   1  27
ATOM     26  C   UNL     1      -6.295   2.575 -21.420  0.00  0.00    +0.277 C 
ATOM     27  O   UNL     1      -5.044   2.591 -21.286  0.00  0.00    -0.491 OA
ENDBRANCH   1  27
TORSDOF 1
ENDMDL
MODEL 4
REMARK VINA RESULT:    -8.771      3.990      5.601
REMARK INTER + INTRA:          -9.406
REMARK INTER:                  -9.280
REMARK INTRA:                  -0.126
REMARK UNBOUND:                -0.123
REMARK  Name = ZINC000096316249
REMARK  3 active torsions:
REMARK  status: ('A' for Active; 'I' for Inactive)
REMARK    1  A    between atoms: C_1  and  O_2
REMARK    2  A    between atoms: O_2  and  C_3
REMARK    3  A    between atoms: N_18  and  C_19
REMARK                            x       y       z     vdW  Elec       q    Type
REMARK                         _______ _______ _______ _____ _____    ______ ____
ROOT
ATOM      1  C   UNL     1       4.684   6.726 -22.189  0.00  0.00    +0.163 A 
ATOM      2  C   UNL     1       5.842   6.205 -22.257  0.00  0.00    +0.065 A 
ATOM      3  C   UNL     1       5.994   5.043 -22.708  0.00  0.00    +0.025 A 
ATOM      4  C   UNL     1       4.993   4.388 -23.096  0.00  0.00    -0.021 A 
ATOM      5  C   UNL     1       3.830   4.885 -23.039  0.00  0.00    +0.013 A 
ATOM      6  C   UNL     1       2.831   4.230 -23.427  0.00  0.00    +0.054 C 
ATOM      7  C   UNL     1       1.624   3.578 -23.840  0.00  0.00    +0.067 C 
ATOM      8  C   UNL     1       1.764   2.262 -24.355  0.00  0.00    +0.132 C 
ATOM      9  N   UNL     1       3.071   1.716 -24.414  0.00  0.00    +0.236 N 
ATOM     10  H   UNL     1       3.238   0.777 -24.773  0.00  0.00    +0.203 HD
ATOM     11  C   UNL     1       3.281   0.558 -24.856  0.00  0.00    +0.190 C 
ATOM     12  C   UNL     1       4.140   2.546 -23.946  0.00  0.00    +0.073 C 
ATOM     13  C   UNL     1       2.983   3.064 -23.880  0.00  0.00    +0.053 C 
ATOM     14  C   UNL     1       1.970   2.401 -24.273  0.00  0.00    +0.015 C 
ATOM     15  C   UNL     1       0.820   2.907 -24.211  0.00  0.00    +0.069 C 
ATOM     16  C   UNL     1       0.662   4.083 -23.755  0.00  0.00    +0.208 C 
ATOM     17  O   UNL     1       0.392   5.232 -23.324  0.00  0.00    -0.343 OA
ATOM     18  C   UNL     1      -0.852   5.398 -23.410  0.00  0.00    +0.191 C 
ATOM     19  C   UNL     1      -1.349   4.350 -23.895  0.00  0.00    +0.191 C 
ATOM     20  O   UNL     1      -0.415   3.538 -24.108  0.00  0.00    -0.343 OA
ATOM     21  C   UNL     1       1.660   4.739 -23.366  0.00  0.00    +0.244 C 
ATOM     22  O   UNL     1       2.178   6.041 -22.776  0.00  0.00    -0.479 OA
ATOM     23  C   UNL     1       5.141   3.201 -23.558  0.00  0.00    +0.091 C 
ATOM     24 BR   UNL     1       7.141   4.536 -22.771  0.00  0.00    -0.050 Br
ATOM     25  C   UNL     1       3.674   6.061 -22.583  0.00  0.00    +0.167 A 
ENDROOT
BRANCH   1  27
ATOM     26  C   UNL     1       5.107   8.225 -20.665  0.00  0.00    +0.277 C 
ATOM     27  O   UNL     1       4.540   7.890 -21.737  0.00  0.00    -0.491 OA
ENDBRANCH   1  27
TORSDOF 1
ENDMDL
MODEL 5
REMARK VINA RESULT:    -8.511      5.119      8.145
REMARK INTER + INTRA:          -9.131
REMARK INTER:                  -9.005
REMARK INTRA:                  -0.126
REMARK UNBOUND:                -0.123
REMARK  Name = ZINC000096316249
REMARK  3 active torsions:
REMARK  status: ('A' for Active; 'I' for Inactive)
REMARK    1  A    between atoms: C_1  and  O_2
REMARK    2  A    between atoms: O_2  and  C_3
REMARK    3  A    between atoms: N_18  and  C_19
REMARK                            x       y       z     vdW  Elec       q    Type
REMARK                         _______ _______ _______ _____ _____    ______ ____
ROOT
ATOM      1  C   UNL     1       1.264   4.728 -23.570  0.00  0.00    +0.163 A 
ATOM      2  C   UNL     1       1.235   3.582 -24.120  0.00  0.00    +0.065 A 
ATOM      3  C   UNL     1       2.291   2.918 -24.267  0.00  0.00    +0.025 A 
ATOM      4  C   UNL     1       3.387   3.390 -23.868  0.00  0.00    -0.021 A 
ATOM      5  C   UNL     1       3.441   4.529 -23.318  0.00  0.00    +0.013 A 
ATOM      6  C   UNL     1       4.536   4.999 -22.919  0.00  0.00    +0.054 C 
ATOM      7  C   UNL     1       5.723   5.633 -22.428  0.00  0.00    +0.067 C 
ATOM      8  C   UNL     1       6.933   4.906 -22.581  0.00  0.00    +0.132 C 
ATOM      9  N   UNL     1       6.859   3.632 -23.199  0.00  0.00    +0.236 N 
ATOM     10  H   UNL     1       7.693   3.060 -23.338  0.00  0.00    +0.203 HD
ATOM     11  C   UNL     1       7.885   2.925 -23.372  0.00  0.00    +0.190 C 
ATOM     12  C   UNL     1       5.563   3.189 -23.616  0.00  0.00    +0.073 C 
ATOM     13  C   UNL     1       5.595   4.333 -23.067  0.00  0.00    +0.053 C 
ATOM     14  C   UNL     1       6.703   4.810 -22.663  0.00  0.00    +0.015 C 
ATOM     15  C   UNL     1       6.743   5.943 -22.118  0.00  0.00    +0.069 C 
ATOM     16  C   UNL     1       5.677   6.619 -21.966  0.00  0.00    +0.208 C 
ATOM     17  O   UNL     1       4.688   7.369 -21.767  0.00  0.00    -0.343 OA
ATOM     18  C   UNL     1       5.100   8.415 -21.204  0.00  0.00    +0.191 C 
ATOM     19  C   UNL     1       6.344   8.310 -21.055  0.00  0.00    +0.191 C 
ATOM     20  O   UNL     1       6.701   7.201 -21.526  0.00  0.00    -0.343 OA
ATOM     21  C   UNL     1       4.582   6.149 -22.364  0.00  0.00    +0.244 C 
ATOM     22  O   UNL     1       3.082   6.358 -22.505  0.00  0.00    -0.479 OA
ATOM     23  C   UNL     1       4.468   2.718 -24.015  0.00  0.00    +0.091 C 
ATOM     24 BR   UNL     1       2.254   1.787 -24.811  0.00  0.00    -0.050 Br
ATOM     25  C   UNL     1       2.374   5.203 -23.167  0.00  0.00    +0.167 A 
ENDROOT
BRANCH   1  27
ATOM     26  C   UNL     1      -0.830   4.828 -22.978  0.00  0.00    +0.277 C 
ATOM     27  O   UNL     1       0.203   5.388 -23.426  0.00  0.00    -0.491 OA
ENDBRANCH   1  27
TORSDOF 1
ENDMDL
MODEL 6
REMARK VINA RESULT:    -8.249      3.825      7.747
REMARK INTER + INTRA:          -8.854
REMARK INTER:                  -8.733
REMARK INTRA:                  -0.121
REMARK UNBOUND:                -0.123
REMARK  Name = ZINC000096316249
REMARK  3 active torsions:
REMARK  status: ('A' for Active; 'I' for Inactive)
REMARK    1  A    between atoms: C_1  and  O_2
REMARK    2  A    between atoms: O_2  and  C_3
REMARK    3  A    between atoms: N_18  and  C_19
REMARK                            x       y       z     vdW  Elec       q    Type
REMARK                         _______ _______ _______ _____ _____    ______ ____
ROOT
ATOM      1  C   UNL     1       0.680   4.153 -23.293  0.00  0.00    +0.163 A 
ATOM      2  C   UNL     1      -0.091   3.238 -22.862  0.00  0.00    +0.065 A 
ATOM      3  C   UNL     1       0.379   2.226 -22.287  0.00  0.00    +0.025 A 
ATOM      4  C   UNL     1       1.622   2.114 -22.135  0.00  0.00    -0.021 A 
ATOM      5  C   UNL     1       2.411   3.011 -22.555  0.00  0.00    +0.013 A 
ATOM      6  C   UNL     1       3.653   2.898 -22.402  0.00  0.00    +0.054 C 
ATOM      7  C   UNL     1       5.080   2.876 -22.284  0.00  0.00    +0.067 C 
ATOM      8  C   UNL     1       5.640   1.743 -21.638  0.00  0.00    +0.132 C 
ATOM      9  N   UNL     1       4.747   0.745 -21.172  0.00  0.00    +0.236 N 
ATOM     10  H   UNL     1       5.087  -0.093 -20.700  0.00  0.00    +0.203 HD
ATOM     11  C   UNL     1       5.162  -0.289 -20.590  0.00  0.00    +0.190 C 
ATOM     12  C   UNL     1       3.351   0.971 -21.397  0.00  0.00    +0.073 C 
ATOM     13  C   UNL     1       4.124   1.882 -21.825  0.00  0.00    +0.053 C 
ATOM     14  C   UNL     1       5.382   1.769 -21.672  0.00  0.00    +0.015 C 
ATOM     15  C   UNL     1       6.154   2.668 -22.093  0.00  0.00    +0.069 C 
ATOM     16  C   UNL     1       5.683   3.695 -22.676  0.00  0.00    +0.208 C 
ATOM     17  O   UNL     1       5.327   4.747 -23.264  0.00  0.00    -0.343 OA
ATOM     18  C   UNL     1       6.361   5.408 -23.539  0.00  0.00    +0.191 C 
ATOM     19  C   UNL     1       7.356   4.763 -23.121  0.00  0.00    +0.191 C 
ATOM     20  O   UNL     1       6.938   3.704 -22.588  0.00  0.00    -0.343 OA
ATOM     21  C   UNL     1       4.442   3.808 -22.829  0.00  0.00    +0.244 C 
ATOM     22  O   UNL     1       3.296   4.653 -23.365  0.00  0.00    -0.479 OA
ATOM     23  C   UNL     1       2.108   1.083 -21.549  0.00  0.00    +0.091 C 
ATOM     24 BR   UNL     1      -0.390   1.327 -21.865  0.00  0.00    -0.050 Br
ATOM     25  C   UNL     1       1.938   4.037 -23.137  0.00  0.00    +0.167 A 
ENDROOT
BRANCH   1  27
ATOM     26  C   UNL     1      -1.007   5.466 -23.711  0.00  0.00    +0.277 C 
ATOM     27  O   UNL     1       0.204   5.164 -23.867  0.00  0.00    -0.491 OA
ENDBRANCH   1  27
TORSDOF 1
ENDMDL
