MODEL 1
REMARK VINA RESULT:   -11.448      0.000      0.000
REMARK INTER + INTRA:         -12.131
REMARK INTER:                 -11.981
REMARK INTRA:                  -0.151
REMARK UNBOUND:                -0.013
REMARK  Name = COc1ccc2c3c1O[C@@]1(C)C(=O)C=C[C@]4(Br)[C@@H](C2)N(C)CC[C@]314       ZINC000253505040
REMARK  4 active torsions:
REMARK  status: ('A' for Active; 'I' for Inactive)
REMARK    1  A    between atoms: C_1  and  O_2
REMARK    2  A    between atoms: O_2  and  C_3
REMARK    3  A    between atoms: C_10  and  C_11
REMARK    4  A    between atoms: N_20  and  C_21
REMARK                            x       y       z     vdW  Elec       q    Type
REMARK                         _______ _______ _______ _____ _____    ______ ____
ROOT
ATOM      1  C   UNL     1       0.455   2.248 -23.255  0.00  0.00    +0.162 A 
ATOM      2  C   UNL     1       0.408   1.838 -22.058  0.00  0.00    +0.050 A 
ATOM      3  C   UNL     1      -0.670   1.860 -21.420  0.00  0.00    +0.008 A 
ATOM      4  C   UNL     1      -1.710   2.291 -21.969  0.00  0.00    -0.034 A 
ATOM      5  C   UNL     1      -1.687   2.706 -23.163  0.00  0.00    +0.014 A 
ATOM      6  C   UNL     1      -2.728   3.136 -23.708  0.00  0.00    +0.075 C 
ATOM      7  C   UNL     1      -3.848   3.647 -24.431  0.00  0.00    +0.069 C 
ATOM      8  C   UNL     1      -5.077   3.685 -23.736  0.00  0.00    +0.132 C 
ATOM      9  N   UNL     1      -5.092   3.220 -22.406  0.00  0.00    +0.237 N 
ATOM     10  H   UNL     1      -5.960   3.231 -21.871  0.00  0.00    +0.203 HD
ATOM     11  C   UNL     1      -6.141   3.220 -21.723  0.00  0.00    +0.191 C 
ATOM     12  C   UNL     1      -3.855   2.749 -21.872  0.00  0.00    +0.090 C 
ATOM     13  C   UNL     1      -3.802   3.158 -23.069  0.00  0.00    +0.101 C 
ATOM     14 BR   UNL     1      -2.764   2.726 -22.517  0.00  0.00    -0.073 Br
ATOM     15  C   UNL     1      -4.860   3.592 -23.614  0.00  0.00    +0.001 C 
ATOM     16  C   UNL     1      -4.827   4.002 -24.801  0.00  0.00    +0.048 C 
ATOM     17  C   UNL     1      -3.743   3.985 -25.459  0.00  0.00    +0.200 C 
ATOM     18  O   UNL     1      -3.715   4.394 -26.641  0.00  0.00    -0.288 OA
ATOM     19  C   UNL     1      -2.697   3.553 -24.912  0.00  0.00    +0.181 C 
ATOM     20  C   UNL     1      -2.377   3.890 -26.079  0.00  0.00    +0.065 C 
ATOM     21  O   UNL     1      -1.218   3.263 -25.052  0.00  0.00    -0.473 OA
ATOM     22  C   UNL     1      -2.814   2.318 -21.325  0.00  0.00    +0.091 C 
ATOM     23  C   UNL     1      -0.600   2.684 -23.809  0.00  0.00    +0.168 A 
ENDROOT
BRANCH   1  25
ATOM     24  C   UNL     1       2.195   3.276 -24.046  0.00  0.00    +0.277 C 
ATOM     25  O   UNL     1       1.535   2.223 -23.889  0.00  0.00    -0.491 OA
ENDBRANCH   1  25
TORSDOF 1
ENDMDL
MODEL 2
REMARK VINA RESULT:   -10.958      1.958      3.157
REMARK INTER + INTRA:         -11.612
REMARK INTER:                 -11.495
REMARK INTRA:                  -0.118
REMARK UNBOUND:                -0.013
REMARK  Name = COc1ccc2c3c1O[C@@]1(C)C(=O)C=C[C@]4(Br)[C@@H](C2)N(C)CC[C@]314       ZINC000253505040
REMARK  4 active torsions:
REMARK  status: ('A' for Active; 'I' for Inactive)
REMARK    1  A    between atoms: C_1  and  O_2
REMARK    2  A    between atoms: O_2  and  C_3
REMARK    3  A    between atoms: C_10  and  C_11
REMARK    4  A    between atoms: N_20  and  C_21
REMARK                            x       y       z     vdW  Elec       q    Type
REMARK                         _______ _______ _______ _____ _____    ______ ____
ROOT
ATOM      1  C   UNL     1       0.218   1.849 -21.571  0.00  0.00    +0.162 A 
ATOM      2  C   UNL     1       1.063   1.950 -22.508  0.00  0.00    +0.050 A 
ATOM      3  C   UNL     1       0.717   2.378 -23.634  0.00  0.00    +0.008 A 
ATOM      4  C   UNL     1      -0.474   2.708 -23.835  0.00  0.00    -0.034 A 
ATOM      5  C   UNL     1      -1.336   2.616 -22.914  0.00  0.00    +0.014 A 
ATOM      6  C   UNL     1      -2.525   2.947 -23.119  0.00  0.00    +0.075 C 
ATOM      7  C   UNL     1      -3.905   3.293 -23.235  0.00  0.00    +0.069 C 
ATOM      8  C   UNL     1      -4.324   3.778 -24.493  0.00  0.00    +0.132 C 
ATOM      9  N   UNL     1      -3.357   3.877 -25.512  0.00  0.00    +0.237 N 
ATOM     10  H   UNL     1      -3.620   4.223 -26.435  0.00  0.00    +0.203 HD
ATOM     11  C   UNL     1      -3.648   4.298 -26.655  0.00  0.00    +0.191 C 
ATOM     12  C   UNL     1      -2.028   3.476 -25.183  0.00  0.00    +0.090 C 
ATOM     13  C   UNL     1      -2.869   3.373 -24.242  0.00  0.00    +0.101 C 
ATOM     14 BR   UNL     1      -1.675   3.043 -24.045  0.00  0.00    -0.073 Br
ATOM     15  C   UNL     1      -4.070   3.710 -24.457  0.00  0.00    +0.001 C 
ATOM     16  C   UNL     1      -4.919   3.614 -23.536  0.00  0.00    +0.048 C 
ATOM     17  C   UNL     1      -4.582   3.183 -22.392  0.00  0.00    +0.200 C 
ATOM     18  O   UNL     1      -5.431   3.090 -21.477  0.00  0.00    -0.288 OA
ATOM     19  C   UNL     1      -3.387   2.850 -22.185  0.00  0.00    +0.181 C 
ATOM     20  C   UNL     1      -4.004   2.655 -21.109  0.00  0.00    +0.065 C 
ATOM     21  O   UNL     1      -2.370   2.316 -21.200  0.00  0.00    -0.473 OA
ATOM     22  C   UNL     1      -0.837   3.145 -24.980  0.00  0.00    +0.091 C 
ATOM     23  C   UNL     1      -0.988   2.185 -21.778  0.00  0.00    +0.168 A 
ENDROOT
BRANCH   1  25
ATOM     24  C   UNL     1       1.778   1.438 -20.119  0.00  0.00    +0.277 C 
ATOM     25  O   UNL     1       0.569   1.421 -20.448  0.00  0.00    -0.491 OA
ENDBRANCH   1  25
TORSDOF 1
ENDMDL
MODEL 3
REMARK VINA RESULT:   -10.870      2.121      5.398
REMARK INTER + INTRA:         -11.519
REMARK INTER:                 -11.430
REMARK INTRA:                  -0.089
REMARK UNBOUND:                -0.013
REMARK  Name = COc1ccc2c3c1O[C@@]1(C)C(=O)C=C[C@]4(Br)[C@@H](C2)N(C)CC[C@]314       ZINC000253505040
REMARK  4 active torsions:
REMARK  status: ('A' for Active; 'I' for Inactive)
REMARK    1  A    between atoms: C_1  and  O_2
REMARK    2  A    between atoms: O_2  and  C_3
REMARK    3  A    between atoms: C_10  and  C_11
REMARK    4  A    between atoms: N_20  and  C_21
REMARK                            x       y       z     vdW  Elec       q    Type
REMARK                         _______ _______ _______ _____ _____    ______ ____
ROOT
ATOM      1  C   UNL     1      -4.638   3.703 -23.037  0.00  0.00    +0.162 A 
ATOM      2  C   UNL     1      -4.825   4.144 -24.209  0.00  0.00    +0.050 A 
ATOM      3  C   UNL     1      -3.891   4.145 -25.045  0.00  0.00    +0.008 A 
ATOM      4  C   UNL     1      -2.764   3.706 -24.720  0.00  0.00    -0.034 A 
ATOM      5  C   UNL     1      -2.554   3.260 -23.556  0.00  0.00    +0.014 A 
ATOM      6  C   UNL     1      -1.427   2.823 -23.236  0.00  0.00    +0.075 C 
ATOM      7  C   UNL     1      -0.187   2.300 -22.758  0.00  0.00    +0.069 C 
ATOM      8  C   UNL     1       0.883   2.288 -23.679  0.00  0.00    +0.132 C 
ATOM      9  N   UNL     1       0.639   2.787 -24.974  0.00  0.00    +0.237 N 
ATOM     10  H   UNL     1       1.386   2.796 -25.668  0.00  0.00    +0.203 HD
ATOM     11  C   UNL     1       1.535   2.812 -25.848  0.00  0.00    +0.191 C 
ATOM     12  C   UNL     1      -0.678   3.265 -25.244  0.00  0.00    +0.090 C 
ATOM     13  C   UNL     1      -0.497   2.824 -24.071  0.00  0.00    +0.101 C 
ATOM     14 BR   UNL     1      -1.624   3.264 -24.399  0.00  0.00    -0.073 Br
ATOM     15  C   UNL     1       0.647   2.383 -23.754  0.00  0.00    +0.001 C 
ATOM     16  C   UNL     1       0.846   1.942 -22.595  0.00  0.00    +0.048 C 
ATOM     17  C   UNL     1      -0.089   1.935 -21.739  0.00  0.00    +0.200 C 
ATOM     18  O   UNL     1       0.114   1.495 -20.585  0.00  0.00    -0.288 OA
ATOM     19  C   UNL     1      -1.223   2.375 -22.060  0.00  0.00    +0.181 C 
ATOM     20  C   UNL     1      -1.309   2.005 -20.863  0.00  0.00    +0.065 C 
ATOM     21  O   UNL     1      -2.646   2.652 -21.628  0.00  0.00    -0.473 OA
ATOM     22  C   UNL     1      -1.806   3.703 -25.566  0.00  0.00    +0.091 C 
ATOM     23  C   UNL     1      -3.494   3.259 -22.711  0.00  0.00    +0.168 A 
ENDROOT
BRANCH   1  25
ATOM     24  C   UNL     1      -5.992   2.623 -21.729  0.00  0.00    +0.277 C 
ATOM     25  O   UNL     1      -5.573   3.704 -22.205  0.00  0.00    -0.491 OA
ENDBRANCH   1  25
TORSDOF 1
ENDMDL
MODEL 4
REMARK VINA RESULT:   -10.835      2.046      4.945
REMARK INTER + INTRA:         -11.482
REMARK INTER:                 -11.367
REMARK INTRA:                  -0.115
REMARK UNBOUND:                -0.013
REMARK  Name = COc1ccc2c3c1O[C@@]1(C)C(=O)C=C[C@]4(Br)[C@@H](C2)N(C)CC[C@]314       ZINC000253505040
REMARK  4 active torsions:
REMARK  status: ('A' for Active; 'I' for Inactive)
REMARK    1  A    between atoms: C_1  and  O_2
REMARK    2  A    between atoms: O_2  and  C_3
REMARK    3  A    between atoms: C_10  and  C_11
REMARK    4  A    between atoms: N_20  and  C_21
REMARK                            x       y       z     vdW  Elec       q    Type
REMARK                         _______ _______ _______ _____ _____    ______ ____
ROOT
ATOM      1  C   UNL     1      -3.433   3.211 -23.092  0.00  0.00    +0.162 A 
ATOM      2  C   UNL     1      -3.660   2.684 -21.964  0.00  0.00    +0.050 A 
ATOM      3  C   UNL     1      -2.731   2.157 -21.308  0.00  0.00    +0.008 A 
ATOM      4  C   UNL     1      -1.568   2.151 -21.771  0.00  0.00    -0.034 A 
ATOM      5  C   UNL     1      -1.317   2.671 -22.896  0.00  0.00    +0.014 A 
ATOM      6  C   UNL     1      -0.153   2.663 -23.356  0.00  0.00    +0.075 C 
ATOM      7  C   UNL     1       1.130   2.714 -23.979  0.00  0.00    +0.069 C 
ATOM      8  C   UNL     1       2.197   2.128 -23.263  0.00  0.00    +0.132 C 
ATOM      9  N   UNL     1       1.906   1.550 -22.011  0.00  0.00    +0.237 N 
ATOM     10  H   UNL     1       2.650   1.117 -21.463  0.00  0.00    +0.203 HD
ATOM     11  C   UNL     1       2.796   1.011 -21.315  0.00  0.00    +0.191 C 
ATOM     12  C   UNL     1       0.550   1.609 -21.572  0.00  0.00    +0.090 C 
ATOM     13  C   UNL     1       0.772   2.137 -22.700  0.00  0.00    +0.101 C 
ATOM     14 BR   UNL     1      -0.391   2.141 -22.233  0.00  0.00    -0.073 Br
ATOM     15  C   UNL     1       1.952   2.125 -23.159  0.00  0.00    +0.001 C 
ATOM     16  C   UNL     1       2.193   2.645 -24.277  0.00  0.00    +0.048 C 
ATOM     17  C   UNL     1       1.262   3.182 -24.951  0.00  0.00    +0.200 C 
ATOM     18  O   UNL     1       1.506   3.698 -26.065  0.00  0.00    -0.288 OA
ATOM     19  C   UNL     1       0.092   3.190 -24.490  0.00  0.00    +0.181 C 
ATOM     20  C   UNL     1       0.041   3.768 -25.604  0.00  0.00    +0.065 C 
ATOM     21  O   UNL     1      -1.351   3.595 -24.697  0.00  0.00    -0.473 OA
ATOM     22  C   UNL     1      -0.614   1.616 -21.110  0.00  0.00    +0.091 C 
ATOM     23  C   UNL     1      -2.253   3.203 -23.559  0.00  0.00    +0.168 A 
ENDROOT
BRANCH   1  25
ATOM     24  C   UNL     1      -5.534   3.715 -23.295  0.00  0.00    +0.277 C 
ATOM     25  O   UNL     1      -4.364   3.736 -23.743  0.00  0.00    -0.491 OA
ENDBRANCH   1  25
TORSDOF 1
ENDMDL
MODEL 5
REMARK VINA RESULT:   -10.129      3.104      6.824
REMARK INTER + INTRA:         -10.735
REMARK INTER:                 -10.615
REMARK INTRA:                  -0.120
REMARK UNBOUND:                -0.013
REMARK  Name = COc1ccc2c3c1O[C@@]1(C)C(=O)C=C[C@]4(Br)[C@@H](C2)N(C)CC[C@]314       ZINC000253505040
REMARK  4 active torsions:
REMARK  status: ('A' for Active; 'I' for Inactive)
REMARK    1  A    between atoms: C_1  and  O_2
REMARK    2  A    between atoms: O_2  and  C_3
REMARK    3  A    between atoms: C_10  and  C_11
REMARK    4  A    between atoms: N_20  and  C_21
REMARK                            x       y       z     vdW  Elec       q    Type
REMARK                         _______ _______ _______ _____ _____    ______ ____
ROOT
ATOM      1  C   UNL     1      -1.098   3.129 -23.322  0.00  0.00    +0.162 A 
ATOM      2  C   UNL     1      -1.198   4.347 -23.654  0.00  0.00    +0.050 A 
ATOM      3  C   UNL     1      -0.183   5.081 -23.695  0.00  0.00    +0.008 A 
ATOM      4  C   UNL     1       0.940   4.608 -23.406  0.00  0.00    -0.034 A 
ATOM      5  C   UNL     1       1.064   3.395 -23.071  0.00  0.00    +0.014 A 
ATOM      6  C   UNL     1       2.188   2.927 -22.783  0.00  0.00    +0.075 C 
ATOM      7  C   UNL     1       3.413   2.283 -22.433  0.00  0.00    +0.069 C 
ATOM      8  C   UNL     1       4.574   3.087 -22.471  0.00  0.00    +0.132 C 
ATOM      9  N   UNL     1       4.425   4.437 -22.844  0.00  0.00    +0.237 N 
ATOM     10  H   UNL     1       5.239   5.050 -22.883  0.00  0.00    +0.203 HD
ATOM     11  C   UNL     1       5.404   5.215 -22.902  0.00  0.00    +0.191 C 
ATOM     12  C   UNL     1       3.104   4.879 -23.155  0.00  0.00    +0.090 C 
ATOM     13  C   UNL     1       3.199   3.661 -22.824  0.00  0.00    +0.101 C 
ATOM     14 BR   UNL     1       2.076   4.137 -23.114  0.00  0.00    -0.073 Br
ATOM     15  C   UNL     1       4.339   3.193 -22.533  0.00  0.00    +0.001 C 
ATOM     16  C   UNL     1       4.453   1.987 -22.202  0.00  0.00    +0.048 C 
ATOM     17  C   UNL     1       3.435   1.232 -22.157  0.00  0.00    +0.200 C 
ATOM     18  O   UNL     1       3.553   0.031 -21.826  0.00  0.00    -0.288 OA
ATOM     19  C   UNL     1       2.305   1.703 -22.446  0.00  0.00    +0.181 C 
ATOM     20  C   UNL     1       2.125   0.494 -22.158  0.00  0.00    +0.065 C 
ATOM     21  O   UNL     1       0.822   1.442 -22.598  0.00  0.00    -0.473 OA
ATOM     22  C   UNL     1       1.980   5.350 -23.444  0.00  0.00    +0.091 C 
ATOM     23  C   UNL     1       0.042   2.653 -23.030  0.00  0.00    +0.168 A 
ENDROOT
BRANCH   1  25
ATOM     24  C   UNL     1      -3.224   2.885 -22.963  0.00  0.00    +0.277 C 
ATOM     25  O   UNL     1      -2.114   2.399 -23.283  0.00  0.00    -0.491 OA
ENDBRANCH   1  25
TORSDOF 1
ENDMDL
MODEL 6
REMARK VINA RESULT:   -10.044      2.398      3.961
REMARK INTER + INTRA:         -10.644
REMARK INTER:                 -10.492
REMARK INTRA:                  -0.152
REMARK UNBOUND:                -0.013
REMARK  Name = COc1ccc2c3c1O[C@@]1(C)C(=O)C=C[C@]4(Br)[C@@H](C2)N(C)CC[C@]314       ZINC000253505040
REMARK  4 active torsions:
REMARK  status: ('A' for Active; 'I' for Inactive)
REMARK    1  A    between atoms: C_1  and  O_2
REMARK    2  A    between atoms: O_2  and  C_3
REMARK    3  A    between atoms: C_10  and  C_11
REMARK    4  A    between atoms: N_20  and  C_21
REMARK                            x       y       z     vdW  Elec       q    Type
REMARK                         _______ _______ _______ _____ _____    ______ ____
ROOT
ATOM      1  C   UNL     1       2.800   2.330 -22.324  0.00  0.00    +0.162 A 
ATOM      2  C   UNL     1       3.405   2.634 -23.394  0.00  0.00    +0.050 A 
ATOM      3  C   UNL     1       2.760   2.950 -24.421  0.00  0.00    +0.008 A 
ATOM      4  C   UNL     1       1.508   2.965 -24.391  0.00  0.00    -0.034 A 
ATOM      5  C   UNL     1       0.883   2.665 -23.334  0.00  0.00    +0.014 A 
ATOM      6  C   UNL     1      -0.368   2.681 -23.308  0.00  0.00    +0.075 C 
ATOM      7  C   UNL     1      -1.787   2.664 -23.159  0.00  0.00    +0.069 C 
ATOM      8  C   UNL     1      -2.540   3.016 -24.301  0.00  0.00    +0.132 C 
ATOM      9  N   UNL     1      -1.834   3.349 -25.474  0.00  0.00    +0.237 N 
ATOM     10  H   UNL     1      -2.341   3.608 -26.320  0.00  0.00    +0.203 HD
ATOM     11  C   UNL     1      -2.427   3.671 -26.528  0.00  0.00    +0.191 C 
ATOM     12  C   UNL     1      -0.409   3.301 -25.406  0.00  0.00    +0.090 C 
ATOM     13  C   UNL     1      -1.009   2.996 -24.333  0.00  0.00    +0.101 C 
ATOM     14 BR   UNL     1       0.244   2.982 -24.367  0.00  0.00    -0.073 Br
ATOM     15  C   UNL     1      -2.274   3.014 -24.314  0.00  0.00    +0.001 C 
ATOM     16  C   UNL     1      -2.887   2.715 -23.260  0.00  0.00    +0.048 C 
ATOM     17  C   UNL     1      -2.248   2.393 -22.213  0.00  0.00    +0.200 C 
ATOM     18  O   UNL     1      -2.862   2.095 -21.164  0.00  0.00    -0.288 OA
ATOM     19  C   UNL     1      -0.991   2.377 -22.238  0.00  0.00    +0.181 C 
ATOM     20  C   UNL     1      -1.329   2.040 -21.076  0.00  0.00    +0.065 C 
ATOM     21  O   UNL     1       0.292   2.127 -21.474  0.00  0.00    -0.473 OA
ATOM     22  C   UNL     1       0.843   3.286 -25.434  0.00  0.00    +0.091 C 
ATOM     23  C   UNL     1       1.531   2.346 -22.296  0.00  0.00    +0.168 A 
ENDROOT
BRANCH   1  25
ATOM     24  C   UNL     1       3.685   0.810 -21.052  0.00  0.00    +0.277 C 
ATOM     25  O   UNL     1       3.448   2.015 -21.300  0.00  0.00    -0.491 OA
ENDBRANCH   1  25
TORSDOF 1
ENDMDL
MODEL 7
REMARK VINA RESULT:   -10.016      2.637      6.265
REMARK INTER + INTRA:         -10.615
REMARK INTER:                 -10.497
REMARK INTRA:                  -0.118
REMARK UNBOUND:                -0.013
REMARK  Name = COc1ccc2c3c1O[C@@]1(C)C(=O)C=C[C@]4(Br)[C@@H](C2)N(C)CC[C@]314       ZINC000253505040
REMARK  4 active torsions:
REMARK  status: ('A' for Active; 'I' for Inactive)
REMARK    1  A    between atoms: C_1  and  O_2
REMARK    2  A    between atoms: O_2  and  C_3
REMARK    3  A    between atoms: C_10  and  C_11
REMARK    4  A    between atoms: N_20  and  C_21
REMARK                            x       y       z     vdW  Elec       q    Type
REMARK                         _______ _______ _______ _____ _____    ______ ____
ROOT
ATOM      1  C   UNL     1      -2.122   3.070 -24.083  0.00  0.00    +0.162 A 
ATOM      2  C   UNL     1      -1.826   3.581 -25.203  0.00  0.00    +0.050 A 
ATOM      3  C   UNL     1      -0.628   3.734 -25.536  0.00  0.00    +0.008 A 
ATOM      4  C   UNL     1       0.286   3.379 -24.757  0.00  0.00    -0.034 A 
ATOM      5  C   UNL     1       0.014   2.867 -23.633  0.00  0.00    +0.014 A 
ATOM      6  C   UNL     1       0.930   2.514 -22.857  0.00  0.00    +0.075 C 
ATOM      7  C   UNL     1       1.886   2.074 -21.892  0.00  0.00    +0.069 C 
ATOM      8  C   UNL     1       3.245   2.235 -22.240  0.00  0.00    +0.132 C 
ATOM      9  N   UNL     1       3.537   2.807 -23.494  0.00  0.00    +0.237 N 
ATOM     10  H   UNL     1       4.506   2.940 -23.783  0.00  0.00    +0.203 HD
ATOM     11  C   UNL     1       4.716   2.983 -23.877  0.00  0.00    +0.191 C 
ATOM     12  C   UNL     1       2.426   3.178 -24.309  0.00  0.00    +0.090 C 
ATOM     13  C   UNL     1       2.124   2.667 -23.191  0.00  0.00    +0.101 C 
ATOM     14 BR   UNL     1       1.213   3.023 -23.974  0.00  0.00    -0.073 Br
ATOM     15  C   UNL     1       3.056   2.312 -22.410  0.00  0.00    +0.001 C 
ATOM     16  C   UNL     1       2.777   1.804 -21.296  0.00  0.00    +0.048 C 
ATOM     17  C   UNL     1       1.569   1.643 -20.946  0.00  0.00    +0.200 C 
ATOM     18  O   UNL     1       1.295   1.136 -19.835  0.00  0.00    -0.288 OA
ATOM     19  C   UNL     1       0.648   1.997 -21.726  0.00  0.00    +0.181 C 
ATOM     20  C   UNL     1       0.089   1.530 -20.703  0.00  0.00    +0.065 C 
ATOM     21  O   UNL     1      -0.842   2.105 -21.965  0.00  0.00    -0.473 OA
ATOM     22  C   UNL     1       1.511   3.532 -25.088  0.00  0.00    +0.091 C 
ATOM     23  C   UNL     1      -1.194   2.711 -23.295  0.00  0.00    +0.168 A 
ENDROOT
BRANCH   1  25
ATOM     24  C   UNL     1      -4.208   3.639 -24.268  0.00  0.00    +0.277 C 
ATOM     25  O   UNL     1      -3.320   2.918 -23.755  0.00  0.00    -0.491 OA
ENDBRANCH   1  25
TORSDOF 1
ENDMDL
MODEL 8
REMARK VINA RESULT:    -8.998      1.214      4.115
REMARK INTER + INTRA:          -9.538
REMARK INTER:                  -9.420
REMARK INTRA:                  -0.117
REMARK UNBOUND:                -0.013
REMARK  Name = COc1ccc2c3c1O[C@@]1(C)C(=O)C=C[C@]4(Br)[C@@H](C2)N(C)CC[C@]314       ZINC000253505040
REMARK  4 active torsions:
REMARK  status: ('A' for Active; 'I' for Inactive)
REMARK    1  A    between atoms: C_1  and  O_2
REMARK    2  A    between atoms: O_2  and  C_3
REMARK    3  A    between atoms: C_10  and  C_11
REMARK    4  A    between atoms: N_20  and  C_21
REMARK                            x       y       z     vdW  Elec       q    Type
REMARK                         _______ _______ _______ _____ _____    ______ ____
ROOT
ATOM      1  C   UNL     1      -3.341   3.505 -26.376  0.00  0.00    +0.162 A 
ATOM      2  C   UNL     1      -4.560   3.781 -26.175  0.00  0.00    +0.050 A 
ATOM      3  C   UNL     1      -5.024   3.800 -25.011  0.00  0.00    +0.008 A 
ATOM      4  C   UNL     1      -4.278   3.545 -24.038  0.00  0.00    -0.034 A 
ATOM      5  C   UNL     1      -3.057   3.266 -24.215  0.00  0.00    +0.014 A 
ATOM      6  C   UNL     1      -2.315   3.012 -23.241  0.00  0.00    +0.075 C 
ATOM      7  C   UNL     1      -1.376   2.705 -22.210  0.00  0.00    +0.069 C 
ATOM      8  C   UNL     1      -1.871   2.720 -20.888  0.00  0.00    +0.132 C 
ATOM      9  N   UNL     1      -3.233   3.031 -20.702  0.00  0.00    +0.237 N 
ATOM     10  H   UNL     1      -3.628   3.052 -19.762  0.00  0.00    +0.203 HD
ATOM     11  C   UNL     1      -3.748   3.065 -19.561  0.00  0.00    +0.191 C 
ATOM     12  C   UNL     1      -3.998   3.307 -21.873  0.00  0.00    +0.090 C 
ATOM     13  C   UNL     1      -2.780   3.032 -22.080  0.00  0.00    +0.101 C 
ATOM     14 BR   UNL     1      -3.530   3.288 -23.052  0.00  0.00    -0.073 Br
ATOM     15  C   UNL     1      -2.035   2.775 -21.090  0.00  0.00    +0.001 C 
ATOM     16  C   UNL     1      -0.824   2.499 -21.275  0.00  0.00    +0.048 C 
ATOM     17  C   UNL     1      -0.340   2.476 -22.447  0.00  0.00    +0.200 C 
ATOM     18  O   UNL     1       0.867   2.201 -22.627  0.00  0.00    -0.288 OA
ATOM     19  C   UNL     1      -1.085   2.732 -23.427  0.00  0.00    +0.181 C 
ATOM     20  C   UNL     1       0.054   2.496 -23.897  0.00  0.00    +0.065 C 
ATOM     21  O   UNL     1      -1.203   2.878 -24.928  0.00  0.00    -0.473 OA
ATOM     22  C   UNL     1      -4.743   3.562 -22.848  0.00  0.00    +0.091 C 
ATOM     23  C   UNL     1      -2.587   3.246 -25.388  0.00  0.00    +0.168 A 
ENDROOT
BRANCH   1  25
ATOM     24  C   UNL     1      -3.657   3.394 -28.520  0.00  0.00    +0.277 C 
ATOM     25  O   UNL     1      -2.881   3.486 -27.540  0.00  0.00    -0.491 OA
ENDBRANCH   1  25
TORSDOF 1
ENDMDL
MODEL 9
REMARK VINA RESULT:    -8.909      1.990      4.324
REMARK INTER + INTRA:          -9.443
REMARK INTER:                  -9.430
REMARK INTRA:                  -0.013
REMARK UNBOUND:                -0.013
REMARK  Name = COc1ccc2c3c1O[C@@]1(C)C(=O)C=C[C@]4(Br)[C@@H](C2)N(C)CC[C@]314       ZINC000253505040
REMARK  4 active torsions:
REMARK  status: ('A' for Active; 'I' for Inactive)
REMARK    1  A    between atoms: C_1  and  O_2
REMARK    2  A    between atoms: O_2  and  C_3
REMARK    3  A    between atoms: C_10  and  C_11
REMARK    4  A    between atoms: N_20  and  C_21
REMARK                            x       y       z     vdW  Elec       q    Type
REMARK                         _______ _______ _______ _____ _____    ______ ____
ROOT
ATOM      1  C   UNL     1      -4.121   3.156 -20.995  0.00  0.00    +0.162 A 
ATOM      2  C   UNL     1      -5.321   3.270 -21.383  0.00  0.00    +0.050 A 
ATOM      3  C   UNL     1      -5.586   3.407 -22.600  0.00  0.00    +0.008 A 
ATOM      4  C   UNL     1      -4.658   3.432 -23.440  0.00  0.00    -0.034 A 
ATOM      5  C   UNL     1      -3.452   3.320 -23.076  0.00  0.00    +0.014 A 
ATOM      6  C   UNL     1      -2.527   3.346 -23.919  0.00  0.00    +0.075 C 
ATOM      7  C   UNL     1      -1.394   3.360 -24.786  0.00  0.00    +0.069 C 
ATOM      8  C   UNL     1      -1.662   3.514 -26.164  0.00  0.00    +0.132 C 
ATOM      9  N   UNL     1      -3.008   3.638 -26.559  0.00  0.00    +0.237 N 
ATOM     10  H   UNL     1      -3.243   3.751 -27.545  0.00  0.00    +0.203 HD
ATOM     11  C   UNL     1      -3.329   3.777 -27.761  0.00  0.00    +0.191 C 
ATOM     12  C   UNL     1      -3.992   3.597 -25.526  0.00  0.00    +0.090 C 
ATOM     13  C   UNL     1      -2.794   3.483 -25.132  0.00  0.00    +0.101 C 
ATOM     14 BR   UNL     1      -3.725   3.458 -24.294  0.00  0.00    -0.073 Br
ATOM     15  C   UNL     1      -1.863   3.510 -25.990  0.00  0.00    +0.001 C 
ATOM     16  C   UNL     1      -0.669   3.398 -25.620  0.00  0.00    +0.048 C 
ATOM     17  C   UNL     1      -0.386   3.258 -24.391  0.00  0.00    +0.200 C 
ATOM     18  O   UNL     1       0.806   3.147 -24.026  0.00  0.00    -0.288 OA
ATOM     19  C   UNL     1      -1.314   3.232 -23.544  0.00  0.00    +0.181 C 
ATOM     20  C   UNL     1      -0.243   3.101 -22.903  0.00  0.00    +0.065 C 
ATOM     21  O   UNL     1      -1.699   3.112 -22.085  0.00  0.00    -0.473 OA
ATOM     22  C   UNL     1      -4.918   3.572 -24.684  0.00  0.00    +0.091 C 
ATOM     23  C   UNL     1      -3.183   3.182 -21.849  0.00  0.00    +0.168 A 
ENDROOT
BRANCH   1  25
ATOM     24  C   UNL     1      -3.025   3.770 -19.225  0.00  0.00    +0.277 C 
ATOM     25  O   UNL     1      -3.861   3.019 -19.777  0.00  0.00    -0.491 OA
ENDBRANCH   1  25
TORSDOF 1
ENDMDL
