MODEL 1
REMARK VINA RESULT:    -9.565      0.000      0.000
REMARK INTER + INTRA:          -9.565
REMARK INTER:                  -9.565
REMARK INTRA:                   0.000
REMARK UNBOUND:                 0.000
REMARK  Name = ZINC000004104710
REMARK  4 active torsions:
REMARK  status: ('A' for Active; 'I' for Inactive)
REMARK    1  A    between atoms: C_1  and  C_2
REMARK    2  A    between atoms: C_6  and  C_7
REMARK    3  A    between atoms: C_6  and  C_8
REMARK    4  A    between atoms: C_12  and  C_13
REMARK                            x       y       z     vdW  Elec       q    Type
REMARK                         _______ _______ _______ _____ _____    ______ ____
ROOT
ATOM      1  C   UNL     1       0.972   1.494 -21.606  0.00  0.00    +0.016 C 
ATOM      2  C   UNL     1      -0.129   1.911 -22.099  0.00  0.00    +0.056 C 
ATOM      3  C   UNL     1      -1.160   1.991 -21.434  0.00  0.00    +0.037 C 
ATOM      4  C   UNL     1      -2.187   2.427 -22.066  0.00  0.00    -0.030 C 
ATOM      5  C   UNL     1      -3.228   2.532 -21.482  0.00  0.00    -0.024 C 
ATOM      6  C   UNL     1      -4.300   2.954 -22.016  0.00  0.00    -0.010 C 
ATOM      7  C   UNL     1      -4.550   3.390 -23.366  0.00  0.00    +0.085 C 
ATOM      8  C   UNL     1      -3.903   3.595 -24.708  0.00  0.00    +0.137 C 
ATOM      9  C   UNL     1      -2.603   3.420 -25.278  0.00  0.00    +0.053 C 
ATOM     10  C   UNL     1      -1.521   3.001 -24.762  0.00  0.00    +0.018 C 
ATOM     11  C   UNL     1      -1.387   2.658 -23.641  0.00  0.00    +0.075 C 
ATOM     12  C   UNL     1      -2.502   3.744 -26.546  0.00  0.00    +0.015 C 
ATOM     13  O   UNL     1      -4.729   4.046 -25.577  0.00  0.00    -0.297 OA
ATOM     14  C   UNL     1      -4.860   2.770 -20.833  0.00  0.00    +0.015 C 
ATOM     15  C   UNL     1      -5.554   3.203 -21.761  0.00  0.00    +0.015 C 
ATOM     16  C   UNL     1      -0.232   2.259 -23.266  0.00  0.00    +0.136 C 
ATOM     17  O   UNL     1       0.778   2.226 -24.082  0.00  0.00    -0.297 OA
ENDROOT
TORSDOF 0
ENDMDL
MODEL 2
REMARK VINA RESULT:    -9.498      2.037      4.077
REMARK INTER + INTRA:          -9.498
REMARK INTER:                  -9.498
REMARK INTRA:                   0.000
REMARK UNBOUND:                 0.000
REMARK  Name = ZINC000004104710
REMARK  4 active torsions:
REMARK  status: ('A' for Active; 'I' for Inactive)
REMARK    1  A    between atoms: C_1  and  C_2
REMARK    2  A    between atoms: C_6  and  C_7
REMARK    3  A    between atoms: C_6  and  C_8
REMARK    4  A    between atoms: C_12  and  C_13
REMARK                            x       y       z     vdW  Elec       q    Type
REMARK                         _______ _______ _______ _____ _____    ______ ____
ROOT
ATOM      1  C   UNL     1      -3.297   3.735 -19.833  0.00  0.00    +0.016 C 
ATOM      2  C   UNL     1      -2.993   3.718 -21.072  0.00  0.00    +0.056 C 
ATOM      3  C   UNL     1      -1.837   3.856 -21.469  0.00  0.00    +0.037 C 
ATOM      4  C   UNL     1      -1.687   3.816 -22.742  0.00  0.00    -0.030 C 
ATOM      5  C   UNL     1      -0.588   3.944 -23.200  0.00  0.00    -0.024 C 
ATOM      6  C   UNL     1      -0.333   3.920 -24.445  0.00  0.00    -0.010 C 
ATOM      7  C   UNL     1      -1.220   3.747 -25.566  0.00  0.00    +0.085 C 
ATOM      8  C   UNL     1      -2.660   3.533 -25.944  0.00  0.00    +0.137 C 
ATOM      9  C   UNL     1      -3.910   3.396 -25.263  0.00  0.00    +0.053 C 
ATOM     10  C   UNL     1      -4.184   3.417 -24.023  0.00  0.00    +0.018 C 
ATOM     11  C   UNL     1      -3.402   3.564 -23.153  0.00  0.00    +0.075 C 
ATOM     12  C   UNL     1      -4.952   3.218 -26.040  0.00  0.00    +0.015 C 
ATOM     13  O   UNL     1      -2.817   3.452 -27.213  0.00  0.00    -0.297 OA
ATOM     14  C   UNL     1       0.930   4.107 -24.102  0.00  0.00    +0.015 C 
ATOM     15  C   UNL     1       0.645   4.012 -25.302  0.00  0.00    +0.015 C 
ATOM     16  C   UNL     1      -3.831   3.563 -21.948  0.00  0.00    +0.136 C 
ATOM     17  O   UNL     1      -5.090   3.405 -21.671  0.00  0.00    -0.297 OA
ENDROOT
TORSDOF 0
ENDMDL
MODEL 3
REMARK VINA RESULT:    -9.263      1.420      1.780
REMARK INTER + INTRA:          -9.263
REMARK INTER:                  -9.263
REMARK INTRA:                   0.000
REMARK UNBOUND:                 0.000
REMARK  Name = ZINC000004104710
REMARK  4 active torsions:
REMARK  status: ('A' for Active; 'I' for Inactive)
REMARK    1  A    between atoms: C_1  and  C_2
REMARK    2  A    between atoms: C_6  and  C_7
REMARK    3  A    between atoms: C_6  and  C_8
REMARK    4  A    between atoms: C_12  and  C_13
REMARK                            x       y       z     vdW  Elec       q    Type
REMARK                         _______ _______ _______ _____ _____    ______ ____
ROOT
ATOM      1  C   UNL     1       2.228   3.747 -23.623  0.00  0.00    +0.016 C 
ATOM      2  C   UNL     1       0.955   3.683 -23.672  0.00  0.00    +0.056 C 
ATOM      3  C   UNL     1       0.258   3.625 -22.661  0.00  0.00    +0.037 C 
ATOM      4  C   UNL     1      -1.006   3.565 -22.869  0.00  0.00    -0.030 C 
ATOM      5  C   UNL     1      -1.747   3.507 -21.929  0.00  0.00    -0.024 C 
ATOM      6  C   UNL     1      -3.012   3.445 -22.028  0.00  0.00    -0.010 C 
ATOM      7  C   UNL     1      -3.846   3.427 -23.201  0.00  0.00    +0.085 C 
ATOM      8  C   UNL     1      -3.817   3.462 -24.704  0.00  0.00    +0.137 C 
ATOM      9  C   UNL     1      -2.821   3.535 -25.728  0.00  0.00    +0.053 C 
ATOM     10  C   UNL     1      -1.556   3.598 -25.650  0.00  0.00    +0.018 C 
ATOM     11  C   UNL     1      -0.933   3.608 -24.648  0.00  0.00    +0.075 C 
ATOM     12  C   UNL     1      -3.284   3.538 -26.957  0.00  0.00    +0.015 C 
ATOM     13  O   UNL     1      -4.994   3.413 -25.210  0.00  0.00    -0.297 OA
ATOM     14  C   UNL     1      -3.028   3.415 -20.706  0.00  0.00    +0.015 C 
ATOM     15  C   UNL     1      -4.103   3.373 -21.317  0.00  0.00    +0.015 C 
ATOM     16  C   UNL     1       0.341   3.674 -24.729  0.00  0.00    +0.136 C 
ATOM     17  O   UNL     1       0.951   3.730 -25.875  0.00  0.00    -0.297 OA
ENDROOT
TORSDOF 0
ENDMDL
MODEL 4
REMARK VINA RESULT:    -9.202      1.395      3.449
REMARK INTER + INTRA:          -9.202
REMARK INTER:                  -9.202
REMARK INTRA:                   0.000
REMARK UNBOUND:                 0.000
REMARK  Name = ZINC000004104710
REMARK  4 active torsions:
REMARK  status: ('A' for Active; 'I' for Inactive)
REMARK    1  A    between atoms: C_1  and  C_2
REMARK    2  A    between atoms: C_6  and  C_7
REMARK    3  A    between atoms: C_6  and  C_8
REMARK    4  A    between atoms: C_12  and  C_13
REMARK                            x       y       z     vdW  Elec       q    Type
REMARK                         _______ _______ _______ _____ _____    ______ ____
ROOT
ATOM      1  C   UNL     1       1.748   1.902 -22.640  0.00  0.00    +0.016 C 
ATOM      2  C   UNL     1       0.518   2.198 -22.803  0.00  0.00    +0.056 C 
ATOM      3  C   UNL     1       0.064   2.554 -23.890  0.00  0.00    +0.037 C 
ATOM      4  C   UNL     1      -1.190   2.819 -23.900  0.00  0.00    -0.030 C 
ATOM      5  C   UNL     1      -1.701   3.172 -24.924  0.00  0.00    -0.024 C 
ATOM      6  C   UNL     1      -2.934   3.457 -25.039  0.00  0.00    -0.010 C 
ATOM      7  C   UNL     1      -3.981   3.439 -24.051  0.00  0.00    +0.085 C 
ATOM      8  C   UNL     1      -4.271   3.153 -22.603  0.00  0.00    +0.137 C 
ATOM      9  C   UNL     1      -3.534   2.723 -21.455  0.00  0.00    +0.053 C 
ATOM     10  C   UNL     1      -2.305   2.434 -21.321  0.00  0.00    +0.018 C 
ATOM     11  C   UNL     1      -1.497   2.471 -22.180  0.00  0.00    +0.075 C 
ATOM     12  C   UNL     1      -4.236   2.606 -20.353  0.00  0.00    +0.015 C 
ATOM     13  O   UNL     1      -5.505   3.341 -22.312  0.00  0.00    -0.297 OA
ATOM     14  C   UNL     1      -2.670   3.707 -26.310  0.00  0.00    +0.015 C 
ATOM     15  C   UNL     1      -3.828   3.851 -25.901  0.00  0.00    +0.015 C 
ATOM     16  C   UNL     1      -0.293   2.149 -21.891  0.00  0.00    +0.136 C 
ATOM     17  O   UNL     1       0.049   1.790 -20.690  0.00  0.00    -0.297 OA
ENDROOT
TORSDOF 0
ENDMDL
MODEL 5
REMARK VINA RESULT:    -8.720      1.672      4.634
REMARK INTER + INTRA:          -8.720
REMARK INTER:                  -8.720
REMARK INTRA:                   0.000
REMARK UNBOUND:                 0.000
REMARK  Name = ZINC000004104710
REMARK  4 active torsions:
REMARK  status: ('A' for Active; 'I' for Inactive)
REMARK    1  A    between atoms: C_1  and  C_2
REMARK    2  A    between atoms: C_6  and  C_7
REMARK    3  A    between atoms: C_6  and  C_8
REMARK    4  A    between atoms: C_12  and  C_13
REMARK                            x       y       z     vdW  Elec       q    Type
REMARK                         _______ _______ _______ _____ _____    ______ ____
ROOT
ATOM      1  C   UNL     1      -2.936   3.749 -27.306  0.00  0.00    +0.016 C 
ATOM      2  C   UNL     1      -2.906   3.470 -26.061  0.00  0.00    +0.056 C 
ATOM      3  C   UNL     1      -1.877   3.112 -25.490  0.00  0.00    +0.037 C 
ATOM      4  C   UNL     1      -2.002   2.867 -24.238  0.00  0.00    -0.030 C 
ATOM      5  C   UNL     1      -1.040   2.514 -23.617  0.00  0.00    -0.024 C 
ATOM      6  C   UNL     1      -1.059   2.247 -22.375  0.00  0.00    -0.010 C 
ATOM      7  C   UNL     1      -2.151   2.290 -21.438  0.00  0.00    +0.085 C 
ATOM      8  C   UNL     1      -3.618   2.593 -21.306  0.00  0.00    +0.137 C 
ATOM      9  C   UNL     1      -4.678   3.021 -22.166  0.00  0.00    +0.053 C 
ATOM     10  C   UNL     1      -4.679   3.292 -23.406  0.00  0.00    +0.018 C 
ATOM     11  C   UNL     1      -3.741   3.235 -24.119  0.00  0.00    +0.075 C 
ATOM     12  C   UNL     1      -5.846   3.159 -21.585  0.00  0.00    +0.015 C 
ATOM     13  O   UNL     1      -4.039   2.427 -20.107  0.00  0.00    -0.297 OA
ATOM     14  C   UNL     1       0.230   1.982 -22.500  0.00  0.00    +0.015 C 
ATOM     15  C   UNL     1      -0.299   1.859 -21.389  0.00  0.00    +0.015 C 
ATOM     16  C   UNL     1      -3.899   3.540 -25.351  0.00  0.00    +0.136 C 
ATOM     17  O   UNL     1      -5.053   3.905 -25.823  0.00  0.00    -0.297 OA
ENDROOT
TORSDOF 0
ENDMDL
MODEL 6
REMARK VINA RESULT:    -8.466      1.505      4.831
REMARK INTER + INTRA:          -8.466
REMARK INTER:                  -8.466
REMARK INTRA:                   0.000
REMARK UNBOUND:                 0.000
REMARK  Name = ZINC000004104710
REMARK  4 active torsions:
REMARK  status: ('A' for Active; 'I' for Inactive)
REMARK    1  A    between atoms: C_1  and  C_2
REMARK    2  A    between atoms: C_6  and  C_7
REMARK    3  A    between atoms: C_6  and  C_8
REMARK    4  A    between atoms: C_12  and  C_13
REMARK                            x       y       z     vdW  Elec       q    Type
REMARK                         _______ _______ _______ _____ _____    ______ ____
ROOT
ATOM      1  C   UNL     1      -6.525   3.042 -21.410  0.00  0.00    +0.016 C 
ATOM      2  C   UNL     1      -5.395   2.994 -22.001  0.00  0.00    +0.056 C 
ATOM      3  C   UNL     1      -5.253   3.316 -23.179  0.00  0.00    +0.037 C 
ATOM      4  C   UNL     1      -4.059   3.215 -23.635  0.00  0.00    -0.030 C 
ATOM      5  C   UNL     1      -3.846   3.512 -24.776  0.00  0.00    -0.024 C 
ATOM      6  C   UNL     1      -2.701   3.447 -25.322  0.00  0.00    -0.010 C 
ATOM      7  C   UNL     1      -1.437   3.034 -24.770  0.00  0.00    +0.085 C 
ATOM      8  C   UNL     1      -0.773   2.531 -23.518  0.00  0.00    +0.137 C 
ATOM      9  C   UNL     1      -1.168   2.213 -22.181  0.00  0.00    +0.053 C 
ATOM     10  C   UNL     1      -2.305   2.271 -21.618  0.00  0.00    +0.018 C 
ATOM     11  C   UNL     1      -3.306   2.621 -22.134  0.00  0.00    +0.075 C 
ATOM     12  C   UNL     1      -0.202   1.790 -21.399  0.00  0.00    +0.015 C 
ATOM     13  O   UNL     1       0.483   2.333 -23.685  0.00  0.00    -0.297 OA
ATOM     14  C   UNL     1      -3.294   3.889 -26.418  0.00  0.00    +0.015 C 
ATOM     15  C   UNL     1      -2.079   3.658 -26.448  0.00  0.00    +0.015 C 
ATOM     16  C   UNL     1      -4.376   2.625 -21.435  0.00  0.00    +0.136 C 
ATOM     17  O   UNL     1      -4.381   2.257 -20.189  0.00  0.00    -0.297 OA
ENDROOT
TORSDOF 0
ENDMDL
MODEL 7
REMARK VINA RESULT:    -8.209      1.849      5.370
REMARK INTER + INTRA:          -8.209
REMARK INTER:                  -8.209
REMARK INTRA:                   0.000
REMARK UNBOUND:                 0.000
REMARK  Name = ZINC000004104710
REMARK  4 active torsions:
REMARK  status: ('A' for Active; 'I' for Inactive)
REMARK    1  A    between atoms: C_1  and  C_2
REMARK    2  A    between atoms: C_6  and  C_7
REMARK    3  A    between atoms: C_6  and  C_8
REMARK    4  A    between atoms: C_12  and  C_13
REMARK                            x       y       z     vdW  Elec       q    Type
REMARK                         _______ _______ _______ _____ _____    ______ ____
ROOT
ATOM      1  C   UNL     1      -4.981   3.534 -22.878  0.00  0.00    +0.016 C 
ATOM      2  C   UNL     1      -3.723   3.332 -22.956  0.00  0.00    +0.056 C 
ATOM      3  C   UNL     1      -3.065   3.646 -23.946  0.00  0.00    +0.037 C 
ATOM      4  C   UNL     1      -1.812   3.380 -23.878  0.00  0.00    -0.030 C 
ATOM      5  C   UNL     1      -1.109   3.658 -24.807  0.00  0.00    -0.024 C 
ATOM      6  C   UNL     1       0.142   3.437 -24.839  0.00  0.00    -0.010 C 
ATOM      7  C   UNL     1       0.999   2.838 -23.848  0.00  0.00    +0.085 C 
ATOM      8  C   UNL     1       1.013   2.229 -22.474  0.00  0.00    +0.137 C 
ATOM      9  C   UNL     1       0.061   1.952 -21.443  0.00  0.00    +0.053 C 
ATOM     10  C   UNL     1      -1.190   2.165 -21.393  0.00  0.00    +0.018 C 
ATOM     11  C   UNL     1      -1.833   2.664 -22.247  0.00  0.00    +0.075 C 
ATOM     12  C   UNL     1       0.553   1.385 -20.367  0.00  0.00    +0.015 C 
ATOM     13  O   UNL     1       2.189   1.854 -22.126  0.00  0.00    -0.297 OA
ATOM     14  C   UNL     1       0.119   3.975 -26.046  0.00  0.00    +0.015 C 
ATOM     15  C   UNL     1       1.197   3.571 -25.592  0.00  0.00    +0.015 C 
ATOM     16  C   UNL     1      -3.087   2.812 -22.050  0.00  0.00    +0.136 C 
ATOM     17  O   UNL     1      -3.656   2.432 -20.946  0.00  0.00    -0.297 OA
ENDROOT
TORSDOF 0
ENDMDL
MODEL 8
REMARK VINA RESULT:    -7.713      2.184      4.551
REMARK INTER + INTRA:          -7.713
REMARK INTER:                  -7.713
REMARK INTRA:                   0.000
REMARK UNBOUND:                 0.000
REMARK  Name = ZINC000004104710
REMARK  4 active torsions:
REMARK  status: ('A' for Active; 'I' for Inactive)
REMARK    1  A    between atoms: C_1  and  C_2
REMARK    2  A    between atoms: C_6  and  C_7
REMARK    3  A    between atoms: C_6  and  C_8
REMARK    4  A    between atoms: C_12  and  C_13
REMARK                            x       y       z     vdW  Elec       q    Type
REMARK                         _______ _______ _______ _____ _____    ______ ____
ROOT
ATOM      1  C   UNL     1       3.870   1.443 -20.887  0.00  0.00    +0.016 C 
ATOM      2  C   UNL     1       2.785   1.767 -21.476  0.00  0.00    +0.056 C 
ATOM      3  C   UNL     1       2.768   2.242 -22.611  0.00  0.00    +0.037 C 
ATOM      4  C   UNL     1       1.603   2.517 -23.071  0.00  0.00    -0.030 C 
ATOM      5  C   UNL     1       1.509   2.983 -24.171  0.00  0.00    -0.024 C 
ATOM      6  C   UNL     1       0.404   3.290 -24.718  0.00  0.00    -0.010 C 
ATOM      7  C   UNL     1      -0.939   3.175 -24.212  0.00  0.00    +0.085 C 
ATOM      8  C   UNL     1      -1.748   2.737 -23.023  0.00  0.00    +0.137 C 
ATOM      9  C   UNL     1      -1.489   2.179 -21.731  0.00  0.00    +0.053 C 
ATOM     10  C   UNL     1      -0.395   1.866 -21.169  0.00  0.00    +0.018 C 
ATOM     11  C   UNL     1       0.677   1.988 -21.645  0.00  0.00    +0.075 C 
ATOM     12  C   UNL     1      -2.555   1.950 -20.999  0.00  0.00    +0.015 C 
ATOM     13  O   UNL     1      -3.006   2.904 -23.207  0.00  0.00    -0.297 OA
ATOM     14  C   UNL     1       1.124   3.673 -25.758  0.00  0.00    +0.015 C 
ATOM     15  C   UNL     1      -0.107   3.783 -25.811  0.00  0.00    +0.015 C 
ATOM     16  C   UNL     1       1.690   1.627 -20.953  0.00  0.00    +0.136 C 
ATOM     17  O   UNL     1       1.561   1.137 -19.757  0.00  0.00    -0.297 OA
ENDROOT
TORSDOF 0
ENDMDL
MODEL 9
REMARK VINA RESULT:    -7.241      2.186      3.394
REMARK INTER + INTRA:          -7.241
REMARK INTER:                  -7.241
REMARK INTRA:                   0.000
REMARK UNBOUND:                 0.000
REMARK  Name = ZINC000004104710
REMARK  4 active torsions:
REMARK  status: ('A' for Active; 'I' for Inactive)
REMARK    1  A    between atoms: C_1  and  C_2
REMARK    2  A    between atoms: C_6  and  C_7
REMARK    3  A    between atoms: C_6  and  C_8
REMARK    4  A    between atoms: C_12  and  C_13
REMARK                            x       y       z     vdW  Elec       q    Type
REMARK                         _______ _______ _______ _____ _____    ______ ____
ROOT
ATOM      1  C   UNL     1       4.120   0.778 -21.228  0.00  0.00    +0.016 C 
ATOM      2  C   UNL     1       3.070   1.282 -21.748  0.00  0.00    +0.056 C 
ATOM      3  C   UNL     1       1.958   1.162 -21.236  0.00  0.00    +0.037 C 
ATOM      4  C   UNL     1       0.998   1.724 -21.874  0.00  0.00    -0.030 C 
ATOM      5  C   UNL     1      -0.114   1.648 -21.434  0.00  0.00    -0.024 C 
ATOM      6  C   UNL     1      -1.132   2.168 -21.989  0.00  0.00    -0.010 C 
ATOM      7  C   UNL     1      -1.230   2.934 -23.205  0.00  0.00    +0.085 C 
ATOM      8  C   UNL     1      -0.428   3.495 -24.346  0.00  0.00    +0.137 C 
ATOM      9  C   UNL     1       0.943   3.506 -24.754  0.00  0.00    +0.053 C 
ATOM     10  C   UNL     1       1.971   2.994 -24.214  0.00  0.00    +0.018 C 
ATOM     11  C   UNL     1       1.979   2.374 -23.211  0.00  0.00    +0.075 C 
ATOM     12  C   UNL     1       1.187   4.151 -25.871  0.00  0.00    +0.015 C 
ATOM     13  O   UNL     1      -1.160   4.137 -25.180  0.00  0.00    -0.297 OA
ATOM     14  C   UNL     1      -1.828   1.670 -20.982  0.00  0.00    +0.015 C 
ATOM     15  C   UNL     1      -2.420   2.313 -21.858  0.00  0.00    +0.015 C 
ATOM     16  C   UNL     1       3.098   1.919 -22.791  0.00  0.00    +0.136 C 
ATOM     17  O   UNL     1       4.206   2.124 -23.438  0.00  0.00    -0.297 OA
ENDROOT
TORSDOF 0
ENDMDL
