MODEL 1
REMARK VINA RESULT:    -8.884      0.000      0.000
REMARK INTER + INTRA:          -9.765
REMARK INTER:                  -9.655
REMARK INTRA:                  -0.110
REMARK UNBOUND:                -0.102
REMARK  Name = ZINC000000491073
REMARK  4 active torsions:
REMARK  status: ('A' for Active; 'I' for Inactive)
REMARK    1  A    between atoms: C_1  and  O_2
REMARK    2  A    between atoms: O_2  and  C_3
REMARK    3  A    between atoms: C_12  and  O_13
REMARK    4  A    between atoms: N_19  and  C_20
REMARK                            x       y       z     vdW  Elec       q    Type
REMARK                         _______ _______ _______ _____ _____    ______ ____
ROOT
ATOM      1  C   UNL     1       1.138   2.183 -23.268  0.00  0.00    +0.162 A 
ATOM      2  C   UNL     1       1.054   1.865 -22.007  0.00  0.00    +0.050 A 
ATOM      3  C   UNL     1      -0.086   1.927 -21.387  0.00  0.00    +0.013 A 
ATOM      4  C   UNL     1      -1.141   2.306 -22.027  0.00  0.00    +0.005 A 
ATOM      5  C   UNL     1      -1.079   2.628 -23.289  0.00  0.00    +0.020 A 
ATOM      6  C   UNL     1      -1.966   3.030 -24.141  0.00  0.00    +0.060 C 
ATOM      7  C   UNL     1      -3.106   3.091 -23.521  0.00  0.00    +0.070 C 
ATOM      8  C   UNL     1      -3.812   2.941 -22.425  0.00  0.00    +0.132 C 
ATOM      9  N   UNL     1      -3.306   2.539 -21.290  0.00  0.00    +0.236 N 
ATOM     10  H   UNL     1      -2.673   2.624 -22.085  0.00  0.00    +0.203 HD
ATOM     11  C   UNL     1      -4.110   2.431 -20.283  0.00  0.00    +0.191 C 
ATOM     12  C   UNL     1      -3.244   3.251 -24.021  0.00  0.00    -0.013 C 
ATOM     13  C   UNL     1      -3.933   3.656 -25.031  0.00  0.00    +0.001 C 
ATOM     14  C   UNL     1      -3.344   3.845 -26.182  0.00  0.00    +0.141 C 
ATOM     15  C   UNL     1      -2.067   3.623 -26.303  0.00  0.00    +0.081 C 
ATOM     16  C   UNL     1      -1.389   3.219 -25.283  0.00  0.00    +0.191 C 
ATOM     17  O   UNL     1      -0.121   2.928 -25.134  0.00  0.00    -0.484 OA
ATOM     18  C   UNL     1      -2.064   2.242 -21.099  0.00  0.00    +0.168 C 
ATOM     19  C   UNL     1       0.070   2.562 -23.898  0.00  0.00    +0.167 A 
ENDROOT
BRANCH   1  21
ATOM     20  C   UNL     1       3.073   1.115 -23.681  0.00  0.00    +0.277 C 
ATOM     21  O   UNL     1       2.276   2.121 -23.885  0.00  0.00    -0.491 OA
ENDBRANCH   1  21
BRANCH  14  22
ATOM     22  O   UNL     1      -4.037   4.255 -27.213  0.00  0.00    -0.388 OA
ATOM     23  H   UNL     1      -4.973   4.037 -27.081  0.00  0.00    +0.210 HD
ENDBRANCH  14  22
TORSDOF 2
ENDMDL
MODEL 2
REMARK VINA RESULT:    -8.871      2.457      4.404
REMARK INTER + INTRA:          -9.750
REMARK INTER:                  -9.757
REMARK INTRA:                   0.007
REMARK UNBOUND:                -0.102
REMARK  Name = ZINC000000491073
REMARK  4 active torsions:
REMARK  status: ('A' for Active; 'I' for Inactive)
REMARK    1  A    between atoms: C_1  and  O_2
REMARK    2  A    between atoms: O_2  and  C_3
REMARK    3  A    between atoms: C_12  and  O_13
REMARK    4  A    between atoms: N_19  and  C_20
REMARK                            x       y       z     vdW  Elec       q    Type
REMARK                         _______ _______ _______ _____ _____    ______ ____
ROOT
ATOM      1  C   UNL     1      -4.675   3.425 -21.775  0.00  0.00    +0.162 A 
ATOM      2  C   UNL     1      -3.754   3.412 -20.853  0.00  0.00    +0.050 A 
ATOM      3  C   UNL     1      -2.496   3.410 -21.178  0.00  0.00    +0.013 A 
ATOM      4  C   UNL     1      -2.160   3.422 -22.424  0.00  0.00    +0.005 A 
ATOM      5  C   UNL     1      -3.065   3.436 -23.363  0.00  0.00    +0.020 A 
ATOM      6  C   UNL     1      -2.995   3.449 -24.655  0.00  0.00    +0.060 C 
ATOM      7  C   UNL     1      -1.737   3.448 -24.980  0.00  0.00    +0.070 C 
ATOM      8  C   UNL     1      -0.474   3.440 -24.627  0.00  0.00    +0.132 C 
ATOM      9  N   UNL     1      -0.071   3.425 -23.385  0.00  0.00    +0.236 N 
ATOM     10  H   UNL     1      -1.076   3.430 -23.555  0.00  0.00    +0.203 HD
ATOM     11  C   UNL     1       1.204   3.418 -23.171  0.00  0.00    +0.191 C 
ATOM     12  C   UNL     1      -1.977   3.454 -25.467  0.00  0.00    -0.013 C 
ATOM     13  C   UNL     1      -2.160   3.468 -26.741  0.00  0.00    +0.001 C 
ATOM     14  C   UNL     1      -3.376   3.478 -27.221  0.00  0.00    +0.141 C 
ATOM     15  C   UNL     1      -4.395   3.473 -26.409  0.00  0.00    +0.081 C 
ATOM     16  C   UNL     1      -4.196   3.459 -25.135  0.00  0.00    +0.191 C 
ATOM     17  O   UNL     1      -5.024   3.451 -24.120  0.00  0.00    -0.484 OA
ATOM     18  C   UNL     1      -0.851   3.417 -22.356  0.00  0.00    +0.168 C 
ATOM     19  C   UNL     1      -4.322   3.437 -23.022  0.00  0.00    +0.167 A 
ENDROOT
BRANCH   1  21
ATOM     20  C   UNL     1      -6.631   2.339 -21.559  0.00  0.00    +0.277 C 
ATOM     21  O   UNL     1      -5.929   3.426 -21.449  0.00  0.00    -0.491 OA
ENDBRANCH   1  21
BRANCH  14  22
ATOM     22  O   UNL     1      -3.571   3.493 -28.514  0.00  0.00    -0.388 OA
ATOM     23  H   UNL     1      -4.514   3.370 -28.700  0.00  0.00    +0.210 HD
ENDBRANCH  14  22
TORSDOF 2
ENDMDL
MODEL 3
REMARK VINA RESULT:    -8.375      2.236      3.784
REMARK INTER + INTRA:          -9.211
REMARK INTER:                  -9.107
REMARK INTRA:                  -0.104
REMARK UNBOUND:                -0.102
REMARK  Name = ZINC000000491073
REMARK  4 active torsions:
REMARK  status: ('A' for Active; 'I' for Inactive)
REMARK    1  A    between atoms: C_1  and  O_2
REMARK    2  A    between atoms: O_2  and  C_3
REMARK    3  A    between atoms: C_12  and  O_13
REMARK    4  A    between atoms: N_19  and  C_20
REMARK                            x       y       z     vdW  Elec       q    Type
REMARK                         _______ _______ _______ _____ _____    ______ ____
ROOT
ATOM      1  C   UNL     1       1.366   3.137 -23.436  0.00  0.00    +0.162 A 
ATOM      2  C   UNL     1       1.541   3.355 -24.709  0.00  0.00    +0.050 A 
ATOM      3  C   UNL     1       0.519   3.489 -25.501  0.00  0.00    +0.013 A 
ATOM      4  C   UNL     1      -0.676   3.404 -25.019  0.00  0.00    +0.005 A 
ATOM      5  C   UNL     1      -0.873   3.186 -23.749  0.00  0.00    +0.020 A 
ATOM      6  C   UNL     1      -1.942   3.061 -23.030  0.00  0.00    +0.060 C 
ATOM      7  C   UNL     1      -2.964   3.194 -23.822  0.00  0.00    +0.070 C 
ATOM      8  C   UNL     1      -3.450   3.399 -25.023  0.00  0.00    +0.132 C 
ATOM      9  N   UNL     1      -2.707   3.582 -26.081  0.00  0.00    +0.236 N 
ATOM     10  H   UNL     1      -2.232   3.430 -25.192  0.00  0.00    +0.203 HD
ATOM     11  C   UNL     1      -3.311   3.774 -27.209  0.00  0.00    +0.191 C 
ATOM     12  C   UNL     1      -3.205   3.112 -23.343  0.00  0.00    -0.013 C 
ATOM     13  C   UNL     1      -4.107   2.955 -22.438  0.00  0.00    +0.001 C 
ATOM     14  C   UNL     1      -3.750   2.743 -21.198  0.00  0.00    +0.141 C 
ATOM     15  C   UNL     1      -2.487   2.692 -20.885  0.00  0.00    +0.081 C 
ATOM     16  C   UNL     1      -1.595   2.851 -21.803  0.00  0.00    +0.191 C 
ATOM     17  O   UNL     1      -0.286   2.847 -21.761  0.00  0.00    -0.484 OA
ATOM     18  C   UNL     1      -1.416   3.585 -26.086  0.00  0.00    +0.168 C 
ATOM     19  C   UNL     1       0.160   3.054 -22.967  0.00  0.00    +0.167 A 
ENDROOT
BRANCH   1  21
ATOM     20  C   UNL     1       3.551   3.453 -23.011  0.00  0.00    +0.277 C 
ATOM     21  O   UNL     1       2.387   3.004 -22.649  0.00  0.00    -0.491 OA
ENDBRANCH   1  21
BRANCH  14  22
ATOM     22  O   UNL     1      -4.660   2.583 -20.273  0.00  0.00    -0.388 OA
ATOM     23  H   UNL     1      -5.536   2.769 -20.645  0.00  0.00    +0.210 HD
ENDBRANCH  14  22
TORSDOF 2
ENDMDL
MODEL 4
REMARK VINA RESULT:    -8.371      0.916      4.434
REMARK INTER + INTRA:          -9.207
REMARK INTER:                  -9.095
REMARK INTRA:                  -0.112
REMARK UNBOUND:                -0.102
REMARK  Name = ZINC000000491073
REMARK  4 active torsions:
REMARK  status: ('A' for Active; 'I' for Inactive)
REMARK    1  A    between atoms: C_1  and  O_2
REMARK    2  A    between atoms: O_2  and  C_3
REMARK    3  A    between atoms: C_12  and  O_13
REMARK    4  A    between atoms: N_19  and  C_20
REMARK                            x       y       z     vdW  Elec       q    Type
REMARK                         _______ _______ _______ _____ _____    ______ ____
ROOT
ATOM      1  C   UNL     1      -3.471   3.957 -25.729  0.00  0.00    +0.162 A 
ATOM      2  C   UNL     1      -4.639   4.046 -25.158  0.00  0.00    +0.050 A 
ATOM      3  C   UNL     1      -4.787   3.731 -23.907  0.00  0.00    +0.013 A 
ATOM      4  C   UNL     1      -3.766   3.327 -23.226  0.00  0.00    +0.005 A 
ATOM      5  C   UNL     1      -2.589   3.230 -23.778  0.00  0.00    +0.020 A 
ATOM      6  C   UNL     1      -1.432   2.861 -23.329  0.00  0.00    +0.060 C 
ATOM      7  C   UNL     1      -1.580   2.545 -22.077  0.00  0.00    +0.070 C 
ATOM      8  C   UNL     1      -2.349   2.416 -21.022  0.00  0.00    +0.132 C 
ATOM      9  N   UNL     1      -3.626   2.687 -21.023  0.00  0.00    +0.236 N 
ATOM     10  H   UNL     1      -3.116   2.821 -21.895  0.00  0.00    +0.203 HD
ATOM     11  C   UNL     1      -4.273   2.518 -19.916  0.00  0.00    +0.191 C 
ATOM     12  C   UNL     1      -1.051   2.454 -22.152  0.00  0.00    -0.013 C 
ATOM     13  C   UNL     1       0.179   2.135 -21.941  0.00  0.00    +0.001 C 
ATOM     14  C   UNL     1       1.047   2.221 -22.915  0.00  0.00    +0.141 C 
ATOM     15  C   UNL     1       0.665   2.627 -24.092  0.00  0.00    +0.081 C 
ATOM     16  C   UNL     1      -0.570   2.943 -24.289  0.00  0.00    +0.191 C 
ATOM     17  O   UNL     1      -1.205   3.372 -25.351  0.00  0.00    -0.484 OA
ATOM     18  C   UNL     1      -4.292   3.111 -22.045  0.00  0.00    +0.168 C 
ATOM     19  C   UNL     1      -2.456   3.549 -25.033  0.00  0.00    +0.167 A 
ENDROOT
BRANCH   1  21
ATOM     20  C   UNL     1      -3.588   3.398 -27.904  0.00  0.00    +0.277 C 
ATOM     21  O   UNL     1      -3.326   4.272 -26.978  0.00  0.00    -0.491 OA
ENDBRANCH   1  21
BRANCH  14  22
ATOM     22  O   UNL     1       2.297   1.898 -22.708  0.00  0.00    -0.388 OA
ATOM     23  H   UNL     1       2.826   2.140 -23.485  0.00  0.00    +0.210 HD
ENDBRANCH  14  22
TORSDOF 2
ENDMDL
MODEL 5
REMARK VINA RESULT:    -8.317      2.463      5.799
REMARK INTER + INTRA:          -9.148
REMARK INTER:                  -9.046
REMARK INTRA:                  -0.102
REMARK UNBOUND:                -0.102
REMARK  Name = ZINC000000491073
REMARK  4 active torsions:
REMARK  status: ('A' for Active; 'I' for Inactive)
REMARK    1  A    between atoms: C_1  and  O_2
REMARK    2  A    between atoms: O_2  and  C_3
REMARK    3  A    between atoms: C_12  and  O_13
REMARK    4  A    between atoms: N_19  and  C_20
REMARK                            x       y       z     vdW  Elec       q    Type
REMARK                         _______ _______ _______ _____ _____    ______ ____
ROOT
ATOM      1  C   UNL     1      -3.382   2.888 -22.493  0.00  0.00    +0.162 A 
ATOM      2  C   UNL     1      -3.596   3.488 -23.630  0.00  0.00    +0.050 A 
ATOM      3  C   UNL     1      -2.605   3.774 -24.420  0.00  0.00    +0.013 A 
ATOM      4  C   UNL     1      -1.401   3.461 -24.073  0.00  0.00    +0.005 A 
ATOM      5  C   UNL     1      -1.165   2.860 -22.940  0.00  0.00    +0.020 A 
ATOM      6  C   UNL     1      -0.079   2.447 -22.370  0.00  0.00    +0.060 C 
ATOM      7  C   UNL     1       0.912   2.734 -23.160  0.00  0.00    +0.070 C 
ATOM      8  C   UNL     1       1.357   3.250 -24.281  0.00  0.00    +0.132 C 
ATOM      9  N   UNL     1       0.585   3.795 -25.182  0.00  0.00    +0.236 N 
ATOM     10  H   UNL     1       0.140   3.421 -24.344  0.00  0.00    +0.203 HD
ATOM     11  C   UNL     1       1.149   4.268 -26.244  0.00  0.00    +0.191 C 
ATOM     12  C   UNL     1       1.167   2.494 -22.745  0.00  0.00    -0.013 C 
ATOM     13  C   UNL     1       2.092   2.008 -21.993  0.00  0.00    +0.001 C 
ATOM     14  C   UNL     1       1.776   1.463 -20.848  0.00  0.00    +0.141 C 
ATOM     15  C   UNL     1       0.530   1.416 -20.472  0.00  0.00    +0.081 C 
ATOM     16  C   UNL     1      -0.386   1.907 -21.235  0.00  0.00    +0.191 C 
ATOM     17  O   UNL     1      -1.687   1.989 -21.102  0.00  0.00    -0.484 OA
ATOM     18  C   UNL     1      -0.699   3.896 -25.091  0.00  0.00    +0.168 C 
ATOM     19  C   UNL     1      -2.168   2.579 -22.158  0.00  0.00    +0.167 A 
ENDROOT
BRANCH   1  21
ATOM     20  C   UNL     1      -5.556   3.077 -21.953  0.00  0.00    +0.277 C 
ATOM     21  O   UNL     1      -4.372   2.603 -21.707  0.00  0.00    -0.491 OA
ENDBRANCH   1  21
BRANCH  14  22
ATOM     22  O   UNL     1       2.710   0.967 -20.079  0.00  0.00    -0.388 OA
ATOM     23  H   UNL     1       3.549   0.940 -20.565  0.00  0.00    +0.210 HD
ENDBRANCH  14  22
TORSDOF 2
ENDMDL
MODEL 6
REMARK VINA RESULT:    -8.314      3.159      6.616
REMARK INTER + INTRA:          -9.145
REMARK INTER:                  -9.043
REMARK INTRA:                  -0.102
REMARK UNBOUND:                -0.102
REMARK  Name = ZINC000000491073
REMARK  4 active torsions:
REMARK  status: ('A' for Active; 'I' for Inactive)
REMARK    1  A    between atoms: C_1  and  O_2
REMARK    2  A    between atoms: O_2  and  C_3
REMARK    3  A    between atoms: C_12  and  O_13
REMARK    4  A    between atoms: N_19  and  C_20
REMARK                            x       y       z     vdW  Elec       q    Type
REMARK                         _______ _______ _______ _____ _____    ______ ____
ROOT
ATOM      1  C   UNL     1      -0.069   2.985 -23.736  0.00  0.00    +0.162 A 
ATOM      2  C   UNL     1      -0.360   4.255 -23.739  0.00  0.00    +0.050 A 
ATOM      3  C   UNL     1       0.552   5.141 -23.471  0.00  0.00    +0.013 A 
ATOM      4  C   UNL     1       1.754   4.757 -23.200  0.00  0.00    +0.005 A 
ATOM      5  C   UNL     1       2.067   3.491 -23.192  0.00  0.00    +0.020 A 
ATOM      6  C   UNL     1       3.171   2.857 -22.958  0.00  0.00    +0.060 C 
ATOM      7  C   UNL     1       4.083   3.743 -22.690  0.00  0.00    +0.070 C 
ATOM      8  C   UNL     1       4.437   4.997 -22.538  0.00  0.00    +0.132 C 
ATOM      9  N   UNL     1       3.616   6.002 -22.683  0.00  0.00    +0.236 N 
ATOM     10  H   UNL     1       3.242   5.064 -22.823  0.00  0.00    +0.203 HD
ATOM     11  C   UNL     1       4.091   7.191 -22.505  0.00  0.00    +0.191 C 
ATOM     12  C   UNL     1       4.363   3.280 -22.647  0.00  0.00    -0.013 C 
ATOM     13  C   UNL     1       5.322   2.442 -22.459  0.00  0.00    +0.001 C 
ATOM     14  C   UNL     1       5.097   1.161 -22.582  0.00  0.00    +0.141 C 
ATOM     15  C   UNL     1       3.905   0.737 -22.893  0.00  0.00    +0.081 C 
ATOM     16  C   UNL     1       2.954   1.588 -23.078  0.00  0.00    +0.191 C 
ATOM     17  O   UNL     1       1.691   1.434 -23.392  0.00  0.00    -0.484 OA
ATOM     18  C   UNL     1       2.367   5.896 -22.991  0.00  0.00    +0.168 C 
ATOM     19  C   UNL     1       1.143   2.614 -23.462  0.00  0.00    +0.167 A 
ENDROOT
BRANCH   1  21
ATOM     20  C   UNL     1      -2.219   2.469 -24.143  0.00  0.00    +0.277 C 
ATOM     21  O   UNL     1      -0.980   2.103 -24.004  0.00  0.00    -0.491 OA
ENDBRANCH   1  21
BRANCH  14  22
ATOM     22  O   UNL     1       6.066   0.304 -22.393  0.00  0.00    -0.388 OA
ATOM     23  H   UNL     1       5.988  -0.082 -21.506  0.00  0.00    +0.210 HD
ENDBRANCH  14  22
TORSDOF 2
ENDMDL
MODEL 7
REMARK VINA RESULT:    -8.212      2.165      4.952
REMARK INTER + INTRA:          -9.034
REMARK INTER:                  -9.184
REMARK INTRA:                   0.150
REMARK UNBOUND:                -0.102
REMARK  Name = ZINC000000491073
REMARK  4 active torsions:
REMARK  status: ('A' for Active; 'I' for Inactive)
REMARK    1  A    between atoms: C_1  and  O_2
REMARK    2  A    between atoms: O_2  and  C_3
REMARK    3  A    between atoms: C_12  and  O_13
REMARK    4  A    between atoms: N_19  and  C_20
REMARK                            x       y       z     vdW  Elec       q    Type
REMARK                         _______ _______ _______ _____ _____    ______ ____
ROOT
ATOM      1  C   UNL     1      -3.760   3.076 -21.562  0.00  0.00    +0.162 A 
ATOM      2  C   UNL     1      -4.853   3.255 -22.249  0.00  0.00    +0.050 A 
ATOM      3  C   UNL     1      -4.803   3.415 -23.537  0.00  0.00    +0.013 A 
ATOM      4  C   UNL     1      -3.661   3.396 -24.138  0.00  0.00    +0.005 A 
ATOM      5  C   UNL     1      -2.555   3.218 -23.471  0.00  0.00    +0.020 A 
ATOM      6  C   UNL     1      -1.311   3.159 -23.824  0.00  0.00    +0.060 C 
ATOM      7  C   UNL     1      -1.261   3.319 -25.112  0.00  0.00    +0.070 C 
ATOM      8  C   UNL     1      -1.873   3.516 -26.256  0.00  0.00    +0.132 C 
ATOM      9  N   UNL     1      -3.167   3.639 -26.371  0.00  0.00    +0.236 N 
ATOM     10  H   UNL     1      -2.789   3.489 -25.436  0.00  0.00    +0.203 HD
ATOM     11  C   UNL     1      -3.646   3.831 -27.556  0.00  0.00    +0.191 C 
ATOM     12  C   UNL     1      -0.737   3.260 -24.988  0.00  0.00    -0.013 C 
ATOM     13  C   UNL     1       0.544   3.166 -25.092  0.00  0.00    +0.001 C 
ATOM     14  C   UNL     1       1.268   2.968 -24.022  0.00  0.00    +0.141 C 
ATOM     15  C   UNL     1       0.694   2.868 -22.858  0.00  0.00    +0.081 C 
ATOM     16  C   UNL     1      -0.589   2.964 -22.768  0.00  0.00    +0.191 C 
ATOM     17  O   UNL     1      -1.403   2.902 -21.743  0.00  0.00    -0.484 OA
ATOM     18  C   UNL     1      -4.005   3.584 -25.389  0.00  0.00    +0.168 C 
ATOM     19  C   UNL     1      -2.620   3.059 -22.180  0.00  0.00    +0.167 A 
ENDROOT
BRANCH   1  21
ATOM     20  C   UNL     1      -3.252   3.786 -19.491  0.00  0.00    +0.277 C 
ATOM     21  O   UNL     1      -3.812   2.916 -20.277  0.00  0.00    -0.491 OA
ENDBRANCH   1  21
BRANCH  14  22
ATOM     22  O   UNL     1       2.568   2.872 -24.120  0.00  0.00    -0.388 OA
ATOM     23  H   UNL     1       2.942   2.651 -23.253  0.00  0.00    +0.210 HD
ENDBRANCH  14  22
TORSDOF 2
ENDMDL
MODEL 8
REMARK VINA RESULT:    -7.079      2.026      4.170
REMARK INTER + INTRA:          -7.801
REMARK INTER:                  -7.902
REMARK INTRA:                   0.100
REMARK UNBOUND:                -0.102
REMARK  Name = ZINC000000491073
REMARK  4 active torsions:
REMARK  status: ('A' for Active; 'I' for Inactive)
REMARK    1  A    between atoms: C_1  and  O_2
REMARK    2  A    between atoms: O_2  and  C_3
REMARK    3  A    between atoms: C_12  and  O_13
REMARK    4  A    between atoms: N_19  and  C_20
REMARK                            x       y       z     vdW  Elec       q    Type
REMARK                         _______ _______ _______ _____ _____    ______ ____
ROOT
ATOM      1  C   UNL     1      -2.070   3.705 -25.948  0.00  0.00    +0.162 A 
ATOM      2  C   UNL     1      -0.796   3.456 -25.833  0.00  0.00    +0.050 A 
ATOM      3  C   UNL     1      -0.309   3.016 -24.711  0.00  0.00    +0.013 A 
ATOM      4  C   UNL     1      -1.097   2.827 -23.705  0.00  0.00    +0.005 A 
ATOM      5  C   UNL     1      -2.374   3.071 -23.799  0.00  0.00    +0.020 A 
ATOM      6  C   UNL     1      -3.356   2.968 -22.962  0.00  0.00    +0.060 C 
ATOM      7  C   UNL     1      -2.869   2.529 -21.840  0.00  0.00    +0.070 C 
ATOM      8  C   UNL     1      -1.843   2.130 -21.126  0.00  0.00    +0.132 C 
ATOM      9  N   UNL     1      -0.623   2.072 -21.586  0.00  0.00    +0.236 N 
ATOM     10  H   UNL     1      -1.351   2.397 -22.222  0.00  0.00    +0.203 HD
ATOM     11  C   UNL     1       0.301   1.661 -20.780  0.00  0.00    +0.191 C 
ATOM     12  C   UNL     1      -3.396   2.579 -21.720  0.00  0.00    -0.013 C 
ATOM     13  C   UNL     1      -4.513   2.562 -21.079  0.00  0.00    +0.001 C 
ATOM     14  C   UNL     1      -5.611   2.937 -21.680  0.00  0.00    +0.141 C 
ATOM     15  C   UNL     1      -5.570   3.327 -22.922  0.00  0.00    +0.081 C 
ATOM     16  C   UNL     1      -4.445   3.339 -23.552  0.00  0.00    +0.191 C 
ATOM     17  O   UNL     1      -4.131   3.677 -24.778  0.00  0.00    -0.484 OA
ATOM     18  C   UNL     1      -0.269   2.395 -22.786  0.00  0.00    +0.168 C 
ATOM     19  C   UNL     1      -2.848   3.511 -24.930  0.00  0.00    +0.167 A 
ENDROOT
BRANCH   1  21
ATOM     20  C   UNL     1      -3.357   3.399 -27.766  0.00  0.00    +0.277 C 
ATOM     21  O   UNL     1      -2.553   4.144 -27.068  0.00  0.00    -0.491 OA
ENDBRANCH   1  21
BRANCH  14  22
ATOM     22  O   UNL     1      -6.748   2.922 -21.036  0.00  0.00    -0.388 OA
ATOM     23  H   UNL     1      -6.601   2.618 -20.127  0.00  0.00    +0.210 HD
ENDBRANCH  14  22
TORSDOF 2
ENDMDL
MODEL 9
REMARK VINA RESULT:    -6.854      3.527      5.106
REMARK INTER + INTRA:          -7.556
REMARK INTER:                  -7.455
REMARK INTRA:                  -0.102
REMARK UNBOUND:                -0.102
REMARK  Name = ZINC000000491073
REMARK  4 active torsions:
REMARK  status: ('A' for Active; 'I' for Inactive)
REMARK    1  A    between atoms: C_1  and  O_2
REMARK    2  A    between atoms: O_2  and  C_3
REMARK    3  A    between atoms: C_12  and  O_13
REMARK    4  A    between atoms: N_19  and  C_20
REMARK                            x       y       z     vdW  Elec       q    Type
REMARK                         _______ _______ _______ _____ _____    ______ ____
ROOT
ATOM      1  C   UNL     1       3.886   5.887 -22.683  0.00  0.00    +0.162 A 
ATOM      2  C   UNL     1       4.919   5.115 -22.867  0.00  0.00    +0.050 A 
ATOM      3  C   UNL     1       4.770   3.921 -23.358  0.00  0.00    +0.013 A 
ATOM      4  C   UNL     1       3.588   3.501 -23.665  0.00  0.00    +0.005 A 
ATOM      5  C   UNL     1       2.541   4.258 -23.489  0.00  0.00    +0.020 A 
ATOM      6  C   UNL     1       1.278   4.081 -23.709  0.00  0.00    +0.060 C 
ATOM      7  C   UNL     1       1.129   2.887 -24.200  0.00  0.00    +0.070 C 
ATOM      8  C   UNL     1       1.648   1.747 -24.591  0.00  0.00    +0.132 C 
ATOM      9  N   UNL     1       2.926   1.483 -24.544  0.00  0.00    +0.236 N 
ATOM     10  H   UNL     1       2.622   2.399 -24.217  0.00  0.00    +0.203 HD
ATOM     11  C   UNL     1       3.310   0.320 -24.960  0.00  0.00    +0.191 C 
ATOM     12  C   UNL     1       0.617   3.067 -24.190  0.00  0.00    -0.013 C 
ATOM     13  C   UNL     1      -0.663   3.126 -24.318  0.00  0.00    +0.001 C 
ATOM     14  C   UNL     1      -1.300   4.210 -23.963  0.00  0.00    +0.141 C 
ATOM     15  C   UNL     1      -0.640   5.224 -23.483  0.00  0.00    +0.081 C 
ATOM     16  C   UNL     1       0.642   5.151 -23.360  0.00  0.00    +0.191 C 
ATOM     17  O   UNL     1       1.529   6.006 -22.915  0.00  0.00    -0.484 OA
ATOM     18  C   UNL     1       3.833   2.294 -24.115  0.00  0.00    +0.168 C 
ATOM     19  C   UNL     1       2.705   5.452 -22.996  0.00  0.00    +0.167 A 
ENDROOT
BRANCH   1  21
ATOM     20  C   UNL     1       5.213   7.483 -21.819  0.00  0.00    +0.277 C 
ATOM     21  O   UNL     1       4.037   7.078 -22.193  0.00  0.00    -0.491 OA
ENDBRANCH   1  21
BRANCH  14  22
ATOM     22  O   UNL     1      -2.600   4.278 -24.091  0.00  0.00    -0.388 OA
ATOM     23  H   UNL     1      -3.021   3.972 -23.273  0.00  0.00    +0.210 HD
ENDBRANCH  14  22
TORSDOF 2
ENDMDL
