MODEL 1
REMARK VINA RESULT:   -10.257      0.000      0.000
REMARK INTER + INTRA:         -10.151
REMARK INTER:                 -12.388
REMARK INTRA:                   2.237
REMARK UNBOUND:                 2.204
REMARK  Name = COC1=CC=C2[C@@H]3Cc4ccc(OC)c5c4[C@@]2(CCN3C)[C@]1(CO)O5              ZINC000100393751
REMARK  7 active torsions:
REMARK  status: ('A' for Active; 'I' for Inactive)
REMARK    1  A    between atoms: C_1  and  O_2
REMARK    2  A    between atoms: O_2  and  C_3
REMARK    3  A    between atoms: C_12  and  O_13
REMARK    4  A    between atoms: O_13  and  C_14
REMARK    5  A    between atoms: N_20  and  C_21
REMARK    6  A    between atoms: C_22  and  C_23
REMARK    7  A    between atoms: C_23  and  O_24
REMARK                            x       y       z     vdW  Elec       q    Type
REMARK                         _______ _______ _______ _____ _____    ______ ____
ROOT
ATOM      1  C   UNL     1      -2.818   3.604 -25.304  0.00  0.00    +0.144 C 
ATOM      2  C   UNL     1      -3.966   3.701 -24.777  0.00  0.00    +0.045 C 
ATOM      3  C   UNL     1      -4.143   3.368 -23.581  0.00  0.00    +0.009 C 
ATOM      4  C   UNL     1      -3.173   2.933 -22.893  0.00  0.00    -0.007 C 
ATOM      5  C   UNL     1      -3.360   2.598 -21.684  0.00  0.00    +0.096 C 
ATOM      6  C   UNL     1      -2.401   2.167 -21.001  0.00  0.00    +0.094 C 
ATOM      7  C   UNL     1      -1.242   2.065 -21.523  0.00  0.00    -0.034 A 
ATOM      8  C   UNL     1      -0.280   1.633 -20.839  0.00  0.00    +0.008 A 
ATOM      9  C   UNL     1       0.858   1.534 -21.356  0.00  0.00    +0.050 A 
ATOM     10  C   UNL     1       1.048   1.868 -22.564  0.00  0.00    +0.162 A 
ATOM     11  C   UNL     1       0.075   2.305 -23.253  0.00  0.00    +0.168 A 
ATOM     12  O   UNL     1      -0.385   2.825 -24.587  0.00  0.00    -0.471 OA
ATOM     13  C   UNL     1      -1.073   2.403 -22.728  0.00  0.00    +0.016 A 
ATOM     14  N   UNL     1      -4.517   3.077 -22.371  0.00  0.00    +0.239 N 
ATOM     15  H   UNL     1      -5.430   3.145 -21.923  0.00  0.00    +0.204 HD
ATOM     16  C   UNL     1      -5.631   3.154 -21.804  0.00  0.00    +0.191 C 
ATOM     17  C   UNL     1      -4.344   3.458 -23.721  0.00  0.00    +0.133 C 
ATOM     18  C   UNL     1      -3.050   3.336 -24.275  0.00  0.00    +0.071 C 
ATOM     19  C   UNL     1      -2.034   2.834 -23.407  0.00  0.00    +0.080 C 
ATOM     20  C   UNL     1      -1.857   3.173 -24.625  0.00  0.00    +0.203 C 
ENDROOT
BRANCH   1  22
ATOM     21  C   UNL     1      -3.386   3.469 -27.396  0.00  0.00    +0.276 C 
ATOM     22  O   UNL     1      -2.644   3.937 -26.500  0.00  0.00    -0.495 OA
ENDBRANCH   1  22
BRANCH  10  23
ATOM     23  O   UNL     1       2.188   1.768 -23.076  0.00  0.00    -0.491 OA
ATOM     24  C   UNL     1       2.934   0.811 -22.765  0.00  0.00    +0.277 C 
ENDBRANCH  10  23
BRANCH  20  25
ATOM     25  C   UNL     1      -1.410   3.434 -25.790  0.00  0.00    +0.213 C 
BRANCH  25  26
ATOM     26  O   UNL     1      -0.172   3.440 -26.026  0.00  0.00    -0.391 OA
ATOM     27  H   UNL     1       0.186   4.324 -25.852  0.00  0.00    +0.210 HD
ENDBRANCH  25  26
ENDBRANCH  20  25
TORSDOF 4
ENDMDL
MODEL 2
REMARK VINA RESULT:    -9.575      2.085      3.504
REMARK INTER + INTRA:          -9.330
REMARK INTER:                 -11.640
REMARK INTRA:                   2.309
REMARK UNBOUND:                 2.204
REMARK  Name = COC1=CC=C2[C@@H]3Cc4ccc(OC)c5c4[C@@]2(CCN3C)[C@]1(CO)O5              ZINC000100393751
REMARK  7 active torsions:
REMARK  status: ('A' for Active; 'I' for Inactive)
REMARK    1  A    between atoms: C_1  and  O_2
REMARK    2  A    between atoms: O_2  and  C_3
REMARK    3  A    between atoms: C_12  and  O_13
REMARK    4  A    between atoms: O_13  and  C_14
REMARK    5  A    between atoms: N_20  and  C_21
REMARK    6  A    between atoms: C_22  and  C_23
REMARK    7  A    between atoms: C_23  and  O_24
REMARK                            x       y       z     vdW  Elec       q    Type
REMARK                         _______ _______ _______ _____ _____    ______ ____
ROOT
ATOM      1  C   UNL     1      -4.414   3.321 -22.515  0.00  0.00    +0.144 C 
ATOM      2  C   UNL     1      -4.751   3.702 -23.676  0.00  0.00    +0.045 C 
ATOM      3  C   UNL     1      -3.907   3.723 -24.604  0.00  0.00    +0.009 C 
ATOM      4  C   UNL     1      -2.713   3.363 -24.384  0.00  0.00    -0.007 C 
ATOM      5  C   UNL     1      -1.866   3.386 -25.328  0.00  0.00    +0.096 C 
ATOM      6  C   UNL     1      -0.684   3.030 -25.113  0.00  0.00    +0.094 C 
ATOM      7  C   UNL     1      -0.336   2.645 -23.949  0.00  0.00    -0.034 A 
ATOM      8  C   UNL     1       0.850   2.287 -23.732  0.00  0.00    +0.008 A 
ATOM      9  C   UNL     1       1.188   1.909 -22.586  0.00  0.00    +0.050 A 
ATOM     10  C   UNL     1       0.344   1.884 -21.641  0.00  0.00    +0.162 A 
ATOM     11  C   UNL     1      -0.853   2.246 -21.862  0.00  0.00    +0.168 A 
ATOM     12  O   UNL     1      -2.228   2.451 -21.288  0.00  0.00    -0.471 OA
ATOM     13  C   UNL     1      -1.191   2.627 -23.021  0.00  0.00    +0.016 A 
ATOM     14  N   UNL     1      -3.183   3.812 -25.679  0.00  0.00    +0.239 N 
ATOM     15  H   UNL     1      -3.428   4.114 -26.621  0.00  0.00    +0.204 HD
ATOM     16  C   UNL     1      -3.465   4.180 -26.842  0.00  0.00    +0.191 C 
ATOM     17  C   UNL     1      -4.153   3.798 -24.650  0.00  0.00    +0.133 C 
ATOM     18  C   UNL     1      -3.741   3.367 -23.369  0.00  0.00    +0.071 C 
ATOM     19  C   UNL     1      -2.372   2.984 -23.239  0.00  0.00    +0.080 C 
ATOM     20  C   UNL     1      -3.232   2.964 -22.296  0.00  0.00    +0.203 C 
ENDROOT
BRANCH   1  22
ATOM     21  C   UNL     1      -6.376   2.762 -21.772  0.00  0.00    +0.276 C 
ATOM     22  O   UNL     1      -5.259   3.301 -21.590  0.00  0.00    -0.495 OA
ENDBRANCH   1  22
BRANCH  10  23
ATOM     23  O   UNL     1       0.687   1.505 -20.496  0.00  0.00    -0.491 OA
ATOM     24  C   UNL     1       1.898   1.492 -20.176  0.00  0.00    +0.277 C 
ENDBRANCH  10  23
BRANCH  20  25
ATOM     25  C   UNL     1      -3.873   2.848 -21.199  0.00  0.00    +0.213 C 
BRANCH  25  26
ATOM     26  O   UNL     1      -3.338   3.149 -20.099  0.00  0.00    -0.391 OA
ATOM     27  H   UNL     1      -3.949   2.941 -19.375  0.00  0.00    +0.210 HD
ENDBRANCH  25  26
ENDBRANCH  20  25
TORSDOF 4
ENDMDL
MODEL 3
REMARK VINA RESULT:    -9.245      1.634      4.508
REMARK INTER + INTRA:          -8.933
REMARK INTER:                 -11.170
REMARK INTRA:                   2.237
REMARK UNBOUND:                 2.204
REMARK  Name = COC1=CC=C2[C@@H]3Cc4ccc(OC)c5c4[C@@]2(CCN3C)[C@]1(CO)O5              ZINC000100393751
REMARK  7 active torsions:
REMARK  status: ('A' for Active; 'I' for Inactive)
REMARK    1  A    between atoms: C_1  and  O_2
REMARK    2  A    between atoms: O_2  and  C_3
REMARK    3  A    between atoms: C_12  and  O_13
REMARK    4  A    between atoms: O_13  and  C_14
REMARK    5  A    between atoms: N_20  and  C_21
REMARK    6  A    between atoms: C_22  and  C_23
REMARK    7  A    between atoms: C_23  and  O_24
REMARK                            x       y       z     vdW  Elec       q    Type
REMARK                         _______ _______ _______ _____ _____    ______ ____
ROOT
ATOM      1  C   UNL     1       0.382   2.910 -24.431  0.00  0.00    +0.144 C 
ATOM      2  C   UNL     1       1.099   2.444 -23.496  0.00  0.00    +0.045 C 
ATOM      3  C   UNL     1       0.589   2.181 -22.380  0.00  0.00    +0.009 C 
ATOM      4  C   UNL     1      -0.646   2.380 -22.183  0.00  0.00    -0.007 C 
ATOM      5  C   UNL     1      -1.154   2.112 -21.052  0.00  0.00    +0.096 C 
ATOM      6  C   UNL     1      -2.376   2.308 -20.855  0.00  0.00    +0.094 C 
ATOM      7  C   UNL     1      -3.104   2.777 -21.791  0.00  0.00    -0.034 A 
ATOM      8  C   UNL     1      -4.330   2.974 -21.594  0.00  0.00    +0.008 A 
ATOM      9  C   UNL     1      -5.044   3.435 -22.517  0.00  0.00    +0.050 A 
ATOM     10  C   UNL     1      -4.540   3.703 -23.648  0.00  0.00    +0.162 A 
ATOM     11  C   UNL     1      -3.301   3.504 -23.844  0.00  0.00    +0.168 A 
ATOM     12  O   UNL     1      -2.155   3.582 -24.816  0.00  0.00    -0.471 OA
ATOM     13  C   UNL     1      -2.584   3.038 -22.911  0.00  0.00    +0.016 A 
ATOM     14  N   UNL     1       0.246   1.852 -21.171  0.00  0.00    +0.239 N 
ATOM     15  H   UNL     1       0.800   1.476 -20.402  0.00  0.00    +0.204 HD
ATOM     16  C   UNL     1       0.910   1.390 -20.215  0.00  0.00    +0.191 C 
ATOM     17  C   UNL     1       0.844   2.140 -22.419  0.00  0.00    +0.133 C 
ATOM     18  C   UNL     1       0.014   2.658 -23.439  0.00  0.00    +0.071 C 
ATOM     19  C   UNL     1      -1.361   2.841 -23.103  0.00  0.00    +0.080 C 
ATOM     20  C   UNL     1      -0.841   3.107 -24.238  0.00  0.00    +0.203 C 
ENDROOT
BRANCH   1  22
ATOM     21  C   UNL     1       1.877   2.509 -25.955  0.00  0.00    +0.276 C 
ATOM     22  O   UNL     1       0.894   3.171 -25.545  0.00  0.00    -0.495 OA
ENDBRANCH   1  22
BRANCH  10  23
ATOM     23  O   UNL     1      -5.257   4.164 -24.567  0.00  0.00    -0.491 OA
ATOM     24  C   UNL     1      -5.335   3.563 -25.663  0.00  0.00    +0.277 C 
ENDBRANCH  10  23
BRANCH  20  25
ATOM     25  C   UNL     1      -0.586   3.453 -25.439  0.00  0.00    +0.213 C 
BRANCH  25  26
ATOM     26  O   UNL     1      -1.486   3.457 -26.320  0.00  0.00    -0.391 OA
ATOM     27  H   UNL     1      -2.198   4.058 -26.052  0.00  0.00    +0.210 HD
ENDBRANCH  25  26
ENDBRANCH  20  25
TORSDOF 4
ENDMDL
MODEL 4
REMARK VINA RESULT:    -8.895      1.904      3.654
REMARK INTER + INTRA:          -8.511
REMARK INTER:                 -10.733
REMARK INTRA:                   2.222
REMARK UNBOUND:                 2.204
REMARK  Name = COC1=CC=C2[C@@H]3Cc4ccc(OC)c5c4[C@@]2(CCN3C)[C@]1(CO)O5              ZINC000100393751
REMARK  7 active torsions:
REMARK  status: ('A' for Active; 'I' for Inactive)
REMARK    1  A    between atoms: C_1  and  O_2
REMARK    2  A    between atoms: O_2  and  C_3
REMARK    3  A    between atoms: C_12  and  O_13
REMARK    4  A    between atoms: O_13  and  C_14
REMARK    5  A    between atoms: N_20  and  C_21
REMARK    6  A    between atoms: C_22  and  C_23
REMARK    7  A    between atoms: C_23  and  O_24
REMARK                            x       y       z     vdW  Elec       q    Type
REMARK                         _______ _______ _______ _____ _____    ______ ____
ROOT
ATOM      1  C   UNL     1      -2.496   2.866 -21.839  0.00  0.00    +0.144 C 
ATOM      2  C   UNL     1      -3.411   3.311 -22.593  0.00  0.00    +0.045 C 
ATOM      3  C   UNL     1      -3.163   3.588 -23.792  0.00  0.00    +0.009 C 
ATOM      4  C   UNL     1      -1.995   3.425 -24.252  0.00  0.00    -0.007 C 
ATOM      5  C   UNL     1      -1.752   3.708 -25.465  0.00  0.00    +0.096 C 
ATOM      6  C   UNL     1      -0.597   3.547 -25.923  0.00  0.00    +0.094 C 
ATOM      7  C   UNL     1       0.330   3.100 -25.171  0.00  0.00    -0.034 A 
ATOM      8  C   UNL     1       1.489   2.938 -25.630  0.00  0.00    +0.008 A 
ATOM      9  C   UNL     1       2.399   2.499 -24.887  0.00  0.00    +0.050 A 
ATOM     10  C   UNL     1       2.159   2.215 -23.675  0.00  0.00    +0.162 A 
ATOM     11  C   UNL     1       0.988   2.379 -23.213  0.00  0.00    +0.168 A 
ATOM     12  O   UNL     1       0.083   2.268 -22.017  0.00  0.00    -0.471 OA
ATOM     13  C   UNL     1       0.072   2.823 -23.967  0.00  0.00    +0.016 A 
ATOM     14  N   UNL     1      -3.100   3.927 -25.044  0.00  0.00    +0.239 N 
ATOM     15  H   UNL     1      -3.818   4.286 -25.672  0.00  0.00    +0.204 HD
ATOM     16  C   UNL     1      -3.968   4.369 -25.831  0.00  0.00    +0.191 C 
ATOM     17  C   UNL     1      -3.405   3.622 -23.698  0.00  0.00    +0.133 C 
ATOM     18  C   UNL     1      -2.359   3.129 -22.885  0.00  0.00    +0.071 C 
ATOM     19  C   UNL     1      -1.085   2.986 -23.512  0.00  0.00    +0.080 C 
ATOM     20  C   UNL     1      -1.339   2.704 -22.293  0.00  0.00    +0.203 C 
ENDROOT
BRANCH   1  22
ATOM     21  C   UNL     1      -3.260   3.454 -19.893  0.00  0.00    +0.276 C 
ATOM     22  O   UNL     1      -2.746   2.590 -20.642  0.00  0.00    -0.495 OA
ENDBRANCH   1  22
BRANCH  10  23
ATOM     23  O   UNL     1       3.072   1.776 -22.936  0.00  0.00    -0.491 OA
ATOM     24  C   UNL     1       3.087   0.567 -22.608  0.00  0.00    +0.277 C 
ENDBRANCH  10  23
BRANCH  20  25
ATOM     25  C   UNL     1      -1.317   2.351 -21.068  0.00  0.00    +0.213 C 
BRANCH  25  26
ATOM     26  O   UNL     1      -0.337   1.722 -20.589  0.00  0.00    -0.391 OA
ATOM     27  H   UNL     1       0.367   1.666 -21.254  0.00  0.00    +0.210 HD
ENDBRANCH  25  26
ENDBRANCH  20  25
TORSDOF 4
ENDMDL
MODEL 5
REMARK VINA RESULT:    -8.392      2.933      6.006
REMARK INTER + INTRA:          -7.906
REMARK INTER:                 -10.110
REMARK INTRA:                   2.204
REMARK UNBOUND:                 2.204
REMARK  Name = COC1=CC=C2[C@@H]3Cc4ccc(OC)c5c4[C@@]2(CCN3C)[C@]1(CO)O5              ZINC000100393751
REMARK  7 active torsions:
REMARK  status: ('A' for Active; 'I' for Inactive)
REMARK    1  A    between atoms: C_1  and  O_2
REMARK    2  A    between atoms: O_2  and  C_3
REMARK    3  A    between atoms: C_12  and  O_13
REMARK    4  A    between atoms: O_13  and  C_14
REMARK    5  A    between atoms: N_20  and  C_21
REMARK    6  A    between atoms: C_22  and  C_23
REMARK    7  A    between atoms: C_23  and  O_24
REMARK                            x       y       z     vdW  Elec       q    Type
REMARK                         _______ _______ _______ _____ _____    ______ ____
ROOT
ATOM      1  C   UNL     1       3.651   4.195 -22.885  0.00  0.00    +0.144 C 
ATOM      2  C   UNL     1       4.280   3.242 -22.336  0.00  0.00    +0.045 C 
ATOM      3  C   UNL     1       3.661   2.233 -21.921  0.00  0.00    +0.009 C 
ATOM      4  C   UNL     1       2.403   2.163 -22.050  0.00  0.00    -0.007 C 
ATOM      5  C   UNL     1       1.784   1.139 -21.628  0.00  0.00    +0.096 C 
ATOM      6  C   UNL     1       0.539   1.067 -21.755  0.00  0.00    +0.094 C 
ATOM      7  C   UNL     1      -0.101   2.022 -22.307  0.00  0.00    -0.034 A 
ATOM      8  C   UNL     1      -1.350   1.950 -22.434  0.00  0.00    +0.008 A 
ATOM      9  C   UNL     1      -1.976   2.891 -22.977  0.00  0.00    +0.050 A 
ATOM     10  C   UNL     1      -1.361   3.915 -23.399  0.00  0.00    +0.162 A 
ATOM     11  C   UNL     1      -0.099   3.985 -23.270  0.00  0.00    +0.168 A 
ATOM     12  O   UNL     1       1.144   4.798 -23.507  0.00  0.00    -0.471 OA
ATOM     13  C   UNL     1       0.530   3.033 -22.721  0.00  0.00    +0.016 A 
ATOM     14  N   UNL     1       3.199   1.120 -21.435  0.00  0.00    +0.239 N 
ATOM     15  H   UNL     1       3.680   0.340 -20.990  0.00  0.00    +0.204 HD
ATOM     16  C   UNL     1       3.773   0.152 -20.885  0.00  0.00    +0.191 C 
ATOM     17  C   UNL     1       3.920   2.246 -21.894  0.00  0.00    +0.133 C 
ATOM     18  C   UNL     1       3.186   3.290 -22.501  0.00  0.00    +0.071 C 
ATOM     19  C   UNL     1       1.775   3.101 -22.592  0.00  0.00    +0.080 C 
ATOM     20  C   UNL     1       2.407   4.127 -23.014  0.00  0.00    +0.203 C 
ENDROOT
BRANCH   1  22
ATOM     21  C   UNL     1       5.445   5.420 -22.909  0.00  0.00    +0.276 C 
ATOM     22  O   UNL     1       4.273   5.203 -23.299  0.00  0.00    -0.495 OA
ENDBRANCH   1  22
BRANCH  10  23
ATOM     23  O   UNL     1      -1.991   4.853 -23.942  0.00  0.00    -0.491 OA
ATOM     24  C   UNL     1      -3.003   4.609 -24.639  0.00  0.00    +0.277 C 
ENDBRANCH  10  23
BRANCH  20  25
ATOM     25  C   UNL     1       2.778   5.241 -23.512  0.00  0.00    +0.213 C 
BRANCH  25  26
ATOM     26  O   UNL     1       1.973   6.203 -23.629  0.00  0.00    -0.391 OA
ATOM     27  H   UNL     1       2.410   6.935 -24.092  0.00  0.00    +0.210 HD
ENDBRANCH  25  26
ENDBRANCH  20  25
TORSDOF 4
ENDMDL
MODEL 6
REMARK VINA RESULT:    -7.629      4.029      6.312
REMARK INTER + INTRA:          -6.986
REMARK INTER:                  -9.130
REMARK INTRA:                   2.144
REMARK UNBOUND:                 2.204
REMARK  Name = COC1=CC=C2[C@@H]3Cc4ccc(OC)c5c4[C@@]2(CCN3C)[C@]1(CO)O5              ZINC000100393751
REMARK  7 active torsions:
REMARK  status: ('A' for Active; 'I' for Inactive)
REMARK    1  A    between atoms: C_1  and  O_2
REMARK    2  A    between atoms: O_2  and  C_3
REMARK    3  A    between atoms: C_12  and  O_13
REMARK    4  A    between atoms: O_13  and  C_14
REMARK    5  A    between atoms: N_20  and  C_21
REMARK    6  A    between atoms: C_22  and  C_23
REMARK    7  A    between atoms: C_23  and  O_24
REMARK                            x       y       z     vdW  Elec       q    Type
REMARK                         _______ _______ _______ _____ _____    ______ ____
ROOT
ATOM      1  C   UNL     1       1.525   4.291 -23.289  0.00  0.00    +0.144 C 
ATOM      2  C   UNL     1       1.129   3.087 -23.270  0.00  0.00    +0.045 C 
ATOM      3  C   UNL     1       1.945   2.157 -23.063  0.00  0.00    +0.009 C 
ATOM      4  C   UNL     1       3.169   2.417 -22.873  0.00  0.00    -0.007 C 
ATOM      5  C   UNL     1       3.988   1.471 -22.664  0.00  0.00    +0.096 C 
ATOM      6  C   UNL     1       5.201   1.726 -22.476  0.00  0.00    +0.094 C 
ATOM      7  C   UNL     1       5.608   2.934 -22.493  0.00  0.00    -0.034 A 
ATOM      8  C   UNL     1       6.824   3.190 -22.304  0.00  0.00    +0.008 A 
ATOM      9  C   UNL     1       7.221   4.380 -22.322  0.00  0.00    +0.050 A 
ATOM     10  C   UNL     1       6.405   5.327 -22.530  0.00  0.00    +0.162 A 
ATOM     11  C   UNL     1       5.177   5.066 -22.721  0.00  0.00    +0.168 A 
ATOM     12  O   UNL     1       3.805   5.616 -22.995  0.00  0.00    -0.471 OA
ATOM     13  C   UNL     1       4.780   3.864 -22.702  0.00  0.00    +0.016 A 
ATOM     14  N   UNL     1       2.632   1.072 -22.867  0.00  0.00    +0.239 N 
ATOM     15  H   UNL     1       2.340   0.095 -22.847  0.00  0.00    +0.204 HD
ATOM     16  C   UNL     1       2.292  -0.133 -22.838  0.00  0.00    +0.191 C 
ATOM     17  C   UNL     1       1.693   2.102 -23.102  0.00  0.00    +0.133 C 
ATOM     18  C   UNL     1       2.170   3.432 -23.117  0.00  0.00    +0.071 C 
ATOM     19  C   UNL     1       3.569   3.605 -22.890  0.00  0.00    +0.080 C 
ATOM     20  C   UNL     1       2.737   4.550 -23.101  0.00  0.00    +0.203 C 
ENDROOT
BRANCH   1  22
ATOM     21  C   UNL     1      -0.510   5.047 -23.250  0.00  0.00    +0.276 C 
ATOM     22  O   UNL     1       0.708   5.219 -23.496  0.00  0.00    -0.495 OA
ENDBRANCH   1  22
BRANCH  10  23
ATOM     23  O   UNL     1       6.807   6.515 -22.547  0.00  0.00    -0.491 OA
ATOM     24  C   UNL     1       6.601   7.262 -21.563  0.00  0.00    +0.277 C 
ENDBRANCH  10  23
BRANCH  20  25
ATOM     25  C   UNL     1       2.136   5.660 -23.283  0.00  0.00    +0.213 C 
BRANCH  25  26
ATOM     26  O   UNL     1       2.768   6.749 -23.285  0.00  0.00    -0.391 OA
ATOM     27  H   UNL     1       3.121   6.919 -22.398  0.00  0.00    +0.210 HD
ENDBRANCH  25  26
ENDBRANCH  20  25
TORSDOF 4
ENDMDL
MODEL 7
REMARK VINA RESULT:    -7.407      5.327      8.350
REMARK INTER + INTRA:          -6.719
REMARK INTER:                  -9.012
REMARK INTRA:                   2.293
REMARK UNBOUND:                 2.204
REMARK  Name = COC1=CC=C2[C@@H]3Cc4ccc(OC)c5c4[C@@]2(CCN3C)[C@]1(CO)O5              ZINC000100393751
REMARK  7 active torsions:
REMARK  status: ('A' for Active; 'I' for Inactive)
REMARK    1  A    between atoms: C_1  and  O_2
REMARK    2  A    between atoms: O_2  and  C_3
REMARK    3  A    between atoms: C_12  and  O_13
REMARK    4  A    between atoms: O_13  and  C_14
REMARK    5  A    between atoms: N_20  and  C_21
REMARK    6  A    between atoms: C_22  and  C_23
REMARK    7  A    between atoms: C_23  and  O_24
REMARK                            x       y       z     vdW  Elec       q    Type
REMARK                         _______ _______ _______ _____ _____    ______ ____
ROOT
ATOM      1  C   UNL     1       5.710   6.582 -22.126  0.00  0.00    +0.144 C 
ATOM      2  C   UNL     1       6.737   5.852 -22.252  0.00  0.00    +0.045 C 
ATOM      3  C   UNL     1       6.635   4.696 -22.730  0.00  0.00    +0.009 C 
ATOM      4  C   UNL     1       5.504   4.255 -23.088  0.00  0.00    -0.007 C 
ATOM      5  C   UNL     1       5.409   3.085 -23.571  0.00  0.00    +0.096 C 
ATOM      6  C   UNL     1       4.291   2.646 -23.926  0.00  0.00    +0.094 C 
ATOM      7  C   UNL     1       3.252   3.375 -23.802  0.00  0.00    -0.034 A 
ATOM      8  C   UNL     1       2.129   2.935 -24.159  0.00  0.00    +0.008 A 
ATOM      9  C   UNL     1       1.109   3.655 -24.036  0.00  0.00    +0.050 A 
ATOM     10  C   UNL     1       1.201   4.823 -23.554  0.00  0.00    +0.162 A 
ATOM     11  C   UNL     1       2.336   5.265 -23.195  0.00  0.00    +0.168 A 
ATOM     12  O   UNL     1       3.106   6.417 -22.611  0.00  0.00    -0.471 OA
ATOM     13  C   UNL     1       3.363   4.536 -23.321  0.00  0.00    +0.016 A 
ATOM     14  N   UNL     1       6.728   3.487 -23.198  0.00  0.00    +0.239 N 
ATOM     15  H   UNL     1       7.538   2.879 -23.310  0.00  0.00    +0.204 HD
ATOM     16  C   UNL     1       7.711   2.726 -23.344  0.00  0.00    +0.191 C 
ATOM     17  C   UNL     1       6.869   4.786 -22.656  0.00  0.00    +0.133 C 
ATOM     18  C   UNL     1       5.702   5.573 -22.530  0.00  0.00    +0.071 C 
ATOM     19  C   UNL     1       4.483   4.971 -22.966  0.00  0.00    +0.080 C 
ATOM     20  C   UNL     1       4.589   6.147 -22.480  0.00  0.00    +0.203 C 
ENDROOT
BRANCH   1  22
ATOM     21  C   UNL     1       6.945   8.198 -21.365  0.00  0.00    +0.276 C 
ATOM     22  O   UNL     1       5.814   7.737 -21.648  0.00  0.00    -0.495 OA
ENDBRANCH   1  22
BRANCH  10  23
ATOM     23  O   UNL     1       0.178   5.539 -23.433  0.00  0.00    -0.491 OA
ATOM     24  C   UNL     1      -0.955   5.009 -23.371  0.00  0.00    +0.277 C 
ENDBRANCH  10  23
BRANCH  20  25
ATOM     25  C   UNL     1       4.413   7.330 -22.036  0.00  0.00    +0.213 C 
BRANCH  25  26
ATOM     26  O   UNL     1       3.622   8.127 -22.606  0.00  0.00    -0.391 OA
ATOM     27  H   UNL     1       2.876   8.319 -22.016  0.00  0.00    +0.210 HD
ENDBRANCH  25  26
ENDBRANCH  20  25
TORSDOF 4
ENDMDL
