MODEL 1
REMARK VINA RESULT:   -11.798      0.000      0.000
REMARK INTER + INTRA:         -12.142
REMARK INTER:                 -12.142
REMARK INTRA:                   0.000
REMARK UNBOUND:                 0.000
REMARK  Name = ZINC000006482817
REMARK  3 active torsions:
REMARK  status: ('A' for Active; 'I' for Inactive)
REMARK    1  A    between atoms: C_1  and  C_2
REMARK    2  A    between atoms: C_15  and  C_16
REMARK    3  A    between atoms: C_20  and  O_21
REMARK                            x       y       z     vdW  Elec       q    Type
REMARK                         _______ _______ _______ _____ _____    ______ ____
ROOT
ATOM      1  C   UNL     1      -4.907   3.107 -21.931  0.00  0.00    +0.014 C 
ATOM      2  C   UNL     1      -3.985   3.291 -22.828  0.00  0.00    -0.003 C 
ATOM      3  C   UNL     1      -3.559   2.719 -21.742  0.00  0.00    +0.010 C 
ATOM      4  C   UNL     1      -2.306   2.387 -21.631  0.00  0.00    +0.005 C 
ATOM      5  C   UNL     1      -1.481   2.628 -22.606  0.00  0.00    +0.002 C 
ATOM      6  C   UNL     1      -1.908   3.200 -23.692  0.00  0.00    -0.003 C 
ATOM      7  C   UNL     1      -1.083   3.441 -24.668  0.00  0.00    +0.008 C 
ATOM      8  C   UNL     1       0.170   3.109 -24.556  0.00  0.00    +0.032 C 
ATOM      9  C   UNL     1       0.596   2.537 -23.470  0.00  0.00    -0.060 C 
ATOM     10  C   UNL     1       1.848   2.205 -23.359  0.00  0.00    +0.046 C 
ATOM     11  C   UNL     1       2.275   1.633 -22.273  0.00  0.00    +0.156 C 
ATOM     12  C   UNL     1       1.450   1.392 -21.297  0.00  0.00    +0.080 C 
ATOM     13  C   UNL     1       0.198   1.724 -21.408  0.00  0.00    +0.019 C 
ATOM     14  O   UNL     1       3.527   1.301 -22.161  0.00  0.00    -0.293 OA
ATOM     15  C   UNL     1      -0.229   2.296 -22.495  0.00  0.00    -0.007 C 
ATOM     16  C   UNL     1      -1.054   2.056 -21.520  0.00  0.00    +0.016 C 
ATOM     17  C   UNL     1      -5.162   3.714 -23.185  0.00  0.00    +0.121 C 
ATOM     18  C   UNL     1      -5.064   4.215 -24.380  0.00  0.00    +0.032 C 
ATOM     19  C   UNL     1      -3.827   4.103 -24.763  0.00  0.00    +0.007 C 
ATOM     20  C   UNL     1      -3.160   3.532 -23.804  0.00  0.00    +0.001 C 
ENDROOT
BRANCH  17  21
ATOM     21  O   UNL     1      -6.247   3.646 -22.471  0.00  0.00    -0.391 OA
ATOM     22  H   UNL     1      -6.577   4.541 -22.300  0.00  0.00    +0.210 HD
ENDBRANCH  17  21
TORSDOF 1
ENDMDL
MODEL 2
REMARK VINA RESULT:   -11.639      0.887      2.504
REMARK INTER + INTRA:         -11.979
REMARK INTER:                 -11.979
REMARK INTRA:                   0.000
REMARK UNBOUND:                 0.000
REMARK  Name = ZINC000006482817
REMARK  3 active torsions:
REMARK  status: ('A' for Active; 'I' for Inactive)
REMARK    1  A    between atoms: C_1  and  C_2
REMARK    2  A    between atoms: C_15  and  C_16
REMARK    3  A    between atoms: C_20  and  O_21
REMARK                            x       y       z     vdW  Elec       q    Type
REMARK                         _______ _______ _______ _____ _____    ______ ____
ROOT
ATOM      1  C   UNL     1      -4.596   3.848 -23.862  0.00  0.00    +0.014 C 
ATOM      2  C   UNL     1      -3.754   3.287 -23.046  0.00  0.00    -0.003 C 
ATOM      3  C   UNL     1      -3.229   3.655 -24.177  0.00  0.00    +0.010 C 
ATOM      4  C   UNL     1      -1.966   3.449 -24.406  0.00  0.00    +0.005 C 
ATOM      5  C   UNL     1      -1.228   2.874 -23.503  0.00  0.00    +0.002 C 
ATOM      6  C   UNL     1      -1.752   2.506 -22.372  0.00  0.00    -0.003 C 
ATOM      7  C   UNL     1      -1.014   1.932 -21.469  0.00  0.00    +0.008 C 
ATOM      8  C   UNL     1       0.249   1.726 -21.697  0.00  0.00    +0.032 C 
ATOM      9  C   UNL     1       0.774   2.094 -22.828  0.00  0.00    -0.060 C 
ATOM     10  C   UNL     1       2.036   1.887 -23.056  0.00  0.00    +0.046 C 
ATOM     11  C   UNL     1       2.561   2.256 -24.187  0.00  0.00    +0.156 C 
ATOM     12  C   UNL     1       1.823   2.830 -25.090  0.00  0.00    +0.080 C 
ATOM     13  C   UNL     1       0.560   3.036 -24.862  0.00  0.00    +0.019 C 
ATOM     14  O   UNL     1       3.825   2.049 -24.416  0.00  0.00    -0.293 OA
ATOM     15  C   UNL     1       0.035   2.668 -23.731  0.00  0.00    -0.007 C 
ATOM     16  C   UNL     1      -0.703   3.243 -24.634  0.00  0.00    +0.016 C 
ATOM     17  C   UNL     1      -4.964   3.375 -22.579  0.00  0.00    +0.121 C 
ATOM     18  C   UNL     1      -4.973   2.856 -21.387  0.00  0.00    +0.032 C 
ATOM     19  C   UNL     1      -3.770   2.446 -21.118  0.00  0.00    +0.007 C 
ATOM     20  C   UNL     1      -3.016   2.712 -22.143  0.00  0.00    +0.001 C 
ENDROOT
BRANCH  17  21
ATOM     21  O   UNL     1      -5.985   3.893 -23.194  0.00  0.00    -0.391 OA
ATOM     22  H   UNL     1      -6.370   4.596 -22.649  0.00  0.00    +0.210 HD
ENDBRANCH  17  21
TORSDOF 1
ENDMDL
MODEL 3
REMARK VINA RESULT:   -11.239      0.769      5.575
REMARK INTER + INTRA:         -11.568
REMARK INTER:                 -11.568
REMARK INTRA:                   0.000
REMARK UNBOUND:                 0.000
REMARK  Name = ZINC000006482817
REMARK  3 active torsions:
REMARK  status: ('A' for Active; 'I' for Inactive)
REMARK    1  A    between atoms: C_1  and  C_2
REMARK    2  A    between atoms: C_15  and  C_16
REMARK    3  A    between atoms: C_20  and  O_21
REMARK                            x       y       z     vdW  Elec       q    Type
REMARK                         _______ _______ _______ _____ _____    ______ ____
ROOT
ATOM      1  C   UNL     1       2.110   1.457 -21.924  0.00  0.00    +0.014 C 
ATOM      2  C   UNL     1       1.346   1.998 -22.825  0.00  0.00    -0.003 C 
ATOM      3  C   UNL     1       0.729   1.694 -21.723  0.00  0.00    +0.010 C 
ATOM      4  C   UNL     1      -0.543   1.938 -21.601  0.00  0.00    +0.005 C 
ATOM      5  C   UNL     1      -1.196   2.486 -22.582  0.00  0.00    +0.002 C 
ATOM      6  C   UNL     1      -0.578   2.791 -23.684  0.00  0.00    -0.003 C 
ATOM      7  C   UNL     1      -1.231   3.340 -24.665  0.00  0.00    +0.008 C 
ATOM      8  C   UNL     1      -2.503   3.583 -24.543  0.00  0.00    +0.032 C 
ATOM      9  C   UNL     1      -3.120   3.279 -23.441  0.00  0.00    -0.060 C 
ATOM     10  C   UNL     1      -4.391   3.523 -23.319  0.00  0.00    +0.046 C 
ATOM     11  C   UNL     1      -5.009   3.218 -22.217  0.00  0.00    +0.156 C 
ATOM     12  C   UNL     1      -4.355   2.669 -21.235  0.00  0.00    +0.080 C 
ATOM     13  C   UNL     1      -3.085   2.425 -21.357  0.00  0.00    +0.019 C 
ATOM     14  O   UNL     1      -6.280   3.462 -22.094  0.00  0.00    -0.293 OA
ATOM     15  C   UNL     1      -2.466   2.730 -22.460  0.00  0.00    -0.007 C 
ATOM     16  C   UNL     1      -1.813   2.182 -21.479  0.00  0.00    +0.016 C 
ATOM     17  C   UNL     1       2.585   1.862 -23.194  0.00  0.00    +0.121 C 
ATOM     18  C   UNL     1       2.698   2.327 -24.404  0.00  0.00    +0.032 C 
ATOM     19  C   UNL     1       1.529   2.750 -24.781  0.00  0.00    +0.007 C 
ATOM     20  C   UNL     1       0.693   2.547 -23.806  0.00  0.00    +0.001 C 
ENDROOT
BRANCH  17  21
ATOM     21  O   UNL     1       3.545   1.351 -22.480  0.00  0.00    -0.391 OA
ATOM     22  H   UNL     1       4.226   0.988 -23.067  0.00  0.00    +0.210 HD
ENDBRANCH  17  21
TORSDOF 1
ENDMDL
MODEL 4
REMARK VINA RESULT:   -10.688      0.987      6.181
REMARK INTER + INTRA:         -11.000
REMARK INTER:                 -11.000
REMARK INTRA:                   0.000
REMARK UNBOUND:                 0.000
REMARK  Name = ZINC000006482817
REMARK  3 active torsions:
REMARK  status: ('A' for Active; 'I' for Inactive)
REMARK    1  A    between atoms: C_1  and  C_2
REMARK    2  A    between atoms: C_15  and  C_16
REMARK    3  A    between atoms: C_20  and  O_21
REMARK                            x       y       z     vdW  Elec       q    Type
REMARK                         _______ _______ _______ _____ _____    ______ ____
ROOT
ATOM      1  C   UNL     1       2.863   2.390 -24.523  0.00  0.00    +0.014 C 
ATOM      2  C   UNL     1       2.025   2.152 -23.558  0.00  0.00    -0.003 C 
ATOM      3  C   UNL     1       1.493   2.740 -24.588  0.00  0.00    +0.010 C 
ATOM      4  C   UNL     1       0.226   3.035 -24.586  0.00  0.00    +0.005 C 
ATOM      5  C   UNL     1      -0.507   2.742 -23.553  0.00  0.00    +0.002 C 
ATOM      6  C   UNL     1       0.026   2.155 -22.523  0.00  0.00    -0.003 C 
ATOM      7  C   UNL     1      -0.708   1.862 -21.490  0.00  0.00    +0.008 C 
ATOM      8  C   UNL     1      -1.974   2.158 -21.488  0.00  0.00    +0.032 C 
ATOM      9  C   UNL     1      -2.506   2.745 -22.518  0.00  0.00    -0.060 C 
ATOM     10  C   UNL     1      -3.772   3.040 -22.515  0.00  0.00    +0.046 C 
ATOM     11  C   UNL     1      -4.305   3.627 -23.545  0.00  0.00    +0.156 C 
ATOM     12  C   UNL     1      -3.571   3.920 -24.578  0.00  0.00    +0.080 C 
ATOM     13  C   UNL     1      -2.306   3.625 -24.581  0.00  0.00    +0.019 C 
ATOM     14  O   UNL     1      -5.571   3.923 -23.543  0.00  0.00    -0.293 OA
ATOM     15  C   UNL     1      -1.772   3.037 -23.550  0.00  0.00    -0.007 C 
ATOM     16  C   UNL     1      -1.039   3.330 -24.583  0.00  0.00    +0.016 C 
ATOM     17  C   UNL     1       3.240   1.758 -23.313  0.00  0.00    +0.121 C 
ATOM     18  C   UNL     1       3.257   1.222 -22.129  0.00  0.00    +0.032 C 
ATOM     19  C   UNL     1       2.053   1.285 -21.642  0.00  0.00    +0.007 C 
ATOM     20  C   UNL     1       1.292   1.860 -22.525  0.00  0.00    +0.001 C 
ENDROOT
BRANCH  17  21
ATOM     21  O   UNL     1       4.259   1.879 -24.112  0.00  0.00    -0.391 OA
ATOM     22  H   UNL     1       4.541   2.806 -24.138  0.00  0.00    +0.210 HD
ENDBRANCH  17  21
TORSDOF 1
ENDMDL
MODEL 5
REMARK VINA RESULT:   -10.453      1.324      2.707
REMARK INTER + INTRA:         -10.759
REMARK INTER:                 -10.759
REMARK INTRA:                   0.000
REMARK UNBOUND:                 0.000
REMARK  Name = ZINC000006482817
REMARK  3 active torsions:
REMARK  status: ('A' for Active; 'I' for Inactive)
REMARK    1  A    between atoms: C_1  and  C_2
REMARK    2  A    between atoms: C_15  and  C_16
REMARK    3  A    between atoms: C_20  and  O_21
REMARK                            x       y       z     vdW  Elec       q    Type
REMARK                         _______ _______ _______ _____ _____    ______ ____
ROOT
ATOM      1  C   UNL     1      -2.708   3.930 -26.207  0.00  0.00    +0.014 C 
ATOM      2  C   UNL     1      -2.770   3.572 -24.959  0.00  0.00    -0.003 C 
ATOM      3  C   UNL     1      -1.589   3.447 -25.488  0.00  0.00    +0.010 C 
ATOM      4  C   UNL     1      -0.601   2.996 -24.772  0.00  0.00    +0.005 C 
ATOM      5  C   UNL     1      -0.794   2.672 -23.529  0.00  0.00    +0.002 C 
ATOM      6  C   UNL     1      -1.975   2.797 -23.000  0.00  0.00    -0.003 C 
ATOM      7  C   UNL     1      -2.168   2.473 -21.756  0.00  0.00    +0.008 C 
ATOM      8  C   UNL     1      -1.180   2.022 -21.041  0.00  0.00    +0.032 C 
ATOM      9  C   UNL     1       0.001   1.897 -21.570  0.00  0.00    -0.060 C 
ATOM     10  C   UNL     1       0.988   1.447 -20.855  0.00  0.00    +0.046 C 
ATOM     11  C   UNL     1       2.169   1.321 -21.383  0.00  0.00    +0.156 C 
ATOM     12  C   UNL     1       2.363   1.645 -22.627  0.00  0.00    +0.080 C 
ATOM     13  C   UNL     1       1.375   2.096 -23.342  0.00  0.00    +0.019 C 
ATOM     14  O   UNL     1       3.158   0.870 -20.668  0.00  0.00    -0.293 OA
ATOM     15  C   UNL     1       0.194   2.221 -22.814  0.00  0.00    -0.007 C 
ATOM     16  C   UNL     1       0.387   2.546 -24.057  0.00  0.00    +0.016 C 
ATOM     17  C   UNL     1      -3.901   3.989 -25.445  0.00  0.00    +0.121 C 
ATOM     18  C   UNL     1      -4.793   3.922 -24.502  0.00  0.00    +0.032 C 
ATOM     19  C   UNL     1      -4.214   3.464 -23.433  0.00  0.00    +0.007 C 
ATOM     20  C   UNL     1      -2.963   3.248 -23.715  0.00  0.00    +0.001 C 
ENDROOT
BRANCH  17  21
ATOM     21  O   UNL     1      -4.105   4.401 -26.662  0.00  0.00    -0.391 OA
ATOM     22  H   UNL     1      -4.929   4.018 -26.998  0.00  0.00    +0.210 HD
ENDBRANCH  17  21
TORSDOF 1
ENDMDL
MODEL 6
REMARK VINA RESULT:   -10.452      1.077      1.862
REMARK INTER + INTRA:         -10.758
REMARK INTER:                 -10.758
REMARK INTRA:                   0.000
REMARK UNBOUND:                 0.000
REMARK  Name = ZINC000006482817
REMARK  3 active torsions:
REMARK  status: ('A' for Active; 'I' for Inactive)
REMARK    1  A    between atoms: C_1  and  C_2
REMARK    2  A    between atoms: C_15  and  C_16
REMARK    3  A    between atoms: C_20  and  O_21
REMARK                            x       y       z     vdW  Elec       q    Type
REMARK                         _______ _______ _______ _____ _____    ______ ____
ROOT
ATOM      1  C   UNL     1      -3.069   2.629 -21.649  0.00  0.00    +0.014 C 
ATOM      2  C   UNL     1      -2.187   2.832 -22.581  0.00  0.00    -0.003 C 
ATOM      3  C   UNL     1      -1.716   2.232 -21.529  0.00  0.00    +0.010 C 
ATOM      4  C   UNL     1      -0.461   1.893 -21.480  0.00  0.00    +0.005 C 
ATOM      5  C   UNL     1       0.322   2.155 -22.485  0.00  0.00    +0.002 C 
ATOM      6  C   UNL     1      -0.149   2.755 -23.537  0.00  0.00    -0.003 C 
ATOM      7  C   UNL     1       0.633   3.017 -24.541  0.00  0.00    +0.008 C 
ATOM      8  C   UNL     1       1.888   2.678 -24.493  0.00  0.00    +0.032 C 
ATOM      9  C   UNL     1       2.359   2.077 -23.441  0.00  0.00    -0.060 C 
ATOM     10  C   UNL     1       3.613   1.738 -23.393  0.00  0.00    +0.046 C 
ATOM     11  C   UNL     1       4.084   1.138 -22.341  0.00  0.00    +0.156 C 
ATOM     12  C   UNL     1       3.301   0.876 -21.337  0.00  0.00    +0.080 C 
ATOM     13  C   UNL     1       2.047   1.215 -21.384  0.00  0.00    +0.019 C 
ATOM     14  O   UNL     1       5.338   0.799 -22.293  0.00  0.00    -0.293 OA
ATOM     15  C   UNL     1       1.575   1.816 -22.437  0.00  0.00    -0.007 C 
ATOM     16  C   UNL     1       0.793   1.554 -21.433  0.00  0.00    +0.016 C 
ATOM     17  C   UNL     1      -3.376   3.268 -22.875  0.00  0.00    +0.121 C 
ATOM     18  C   UNL     1      -3.328   3.798 -24.061  0.00  0.00    +0.032 C 
ATOM     19  C   UNL     1      -2.110   3.691 -24.500  0.00  0.00    +0.007 C 
ATOM     20  C   UNL     1      -1.404   3.094 -23.585  0.00  0.00    +0.001 C 
ENDROOT
BRANCH  17  21
ATOM     21  O   UNL     1      -4.429   3.187 -22.116  0.00  0.00    -0.391 OA
ATOM     22  H   UNL     1      -4.191   2.762 -21.278  0.00  0.00    +0.210 HD
ENDBRANCH  17  21
TORSDOF 1
ENDMDL
MODEL 7
REMARK VINA RESULT:    -9.933      1.366      6.002
REMARK INTER + INTRA:         -10.223
REMARK INTER:                 -10.223
REMARK INTRA:                   0.000
REMARK UNBOUND:                 0.000
REMARK  Name = ZINC000006482817
REMARK  3 active torsions:
REMARK  status: ('A' for Active; 'I' for Inactive)
REMARK    1  A    between atoms: C_1  and  C_2
REMARK    2  A    between atoms: C_15  and  C_16
REMARK    3  A    between atoms: C_20  and  O_21
REMARK                            x       y       z     vdW  Elec       q    Type
REMARK                         _______ _______ _______ _____ _____    ______ ____
ROOT
ATOM      1  C   UNL     1       3.044   1.332 -20.887  0.00  0.00    +0.014 C 
ATOM      2  C   UNL     1       2.765   2.063 -21.925  0.00  0.00    -0.003 C 
ATOM      3  C   UNL     1       1.719   1.610 -21.299  0.00  0.00    +0.010 C 
ATOM      4  C   UNL     1       0.527   1.903 -21.730  0.00  0.00    +0.005 C 
ATOM      5  C   UNL     1       0.383   2.648 -22.786  0.00  0.00    +0.002 C 
ATOM      6  C   UNL     1       1.429   3.100 -23.411  0.00  0.00    -0.003 C 
ATOM      7  C   UNL     1       1.284   3.845 -24.466  0.00  0.00    +0.008 C 
ATOM      8  C   UNL     1       0.092   4.137 -24.897  0.00  0.00    +0.032 C 
ATOM      9  C   UNL     1      -0.954   3.685 -24.272  0.00  0.00    -0.060 C 
ATOM     10  C   UNL     1      -2.145   3.977 -24.702  0.00  0.00    +0.046 C 
ATOM     11  C   UNL     1      -3.191   3.525 -24.077  0.00  0.00    +0.156 C 
ATOM     12  C   UNL     1      -3.046   2.780 -23.022  0.00  0.00    +0.080 C 
ATOM     13  C   UNL     1      -1.855   2.487 -22.591  0.00  0.00    +0.019 C 
ATOM     14  O   UNL     1      -4.382   3.817 -24.508  0.00  0.00    -0.293 OA
ATOM     15  C   UNL     1      -0.808   2.940 -23.216  0.00  0.00    -0.007 C 
ATOM     16  C   UNL     1      -0.663   2.195 -22.160  0.00  0.00    +0.016 C 
ATOM     17  C   UNL     1       4.039   1.921 -21.705  0.00  0.00    +0.121 C 
ATOM     18  C   UNL     1       4.681   2.578 -22.625  0.00  0.00    +0.032 C 
ATOM     19  C   UNL     1       3.805   3.126 -23.413  0.00  0.00    +0.007 C 
ATOM     20  C   UNL     1       2.621   2.808 -22.980  0.00  0.00    +0.001 C 
ENDROOT
BRANCH  17  21
ATOM     21  O   UNL     1       4.577   1.241 -20.736  0.00  0.00    -0.391 OA
ATOM     22  H   UNL     1       5.525   1.438 -20.690  0.00  0.00    +0.210 HD
ENDBRANCH  17  21
TORSDOF 1
ENDMDL
MODEL 8
REMARK VINA RESULT:    -9.393      2.245      3.517
REMARK INTER + INTRA:          -9.668
REMARK INTER:                  -9.668
REMARK INTRA:                   0.000
REMARK UNBOUND:                 0.000
REMARK  Name = ZINC000006482817
REMARK  3 active torsions:
REMARK  status: ('A' for Active; 'I' for Inactive)
REMARK    1  A    between atoms: C_1  and  C_2
REMARK    2  A    between atoms: C_15  and  C_16
REMARK    3  A    between atoms: C_20  and  O_21
REMARK                            x       y       z     vdW  Elec       q    Type
REMARK                         _______ _______ _______ _____ _____    ______ ____
ROOT
ATOM      1  C   UNL     1      -1.527   1.975 -22.287  0.00  0.00    +0.014 C 
ATOM      2  C   UNL     1      -0.737   2.941 -22.652  0.00  0.00    -0.003 C 
ATOM      3  C   UNL     1      -0.115   1.867 -22.265  0.00  0.00    +0.010 C 
ATOM      4  C   UNL     1       1.185   1.832 -22.268  0.00  0.00    +0.005 C 
ATOM      5  C   UNL     1       1.862   2.870 -22.659  0.00  0.00    +0.002 C 
ATOM      6  C   UNL     1       1.240   3.944 -23.046  0.00  0.00    -0.003 C 
ATOM      7  C   UNL     1       1.917   4.983 -23.436  0.00  0.00    +0.008 C 
ATOM      8  C   UNL     1       3.217   4.947 -23.440  0.00  0.00    +0.032 C 
ATOM      9  C   UNL     1       3.839   3.874 -23.052  0.00  0.00    -0.060 C 
ATOM     10  C   UNL     1       5.138   3.839 -23.056  0.00  0.00    +0.046 C 
ATOM     11  C   UNL     1       5.760   2.765 -22.669  0.00  0.00    +0.156 C 
ATOM     12  C   UNL     1       5.083   1.726 -22.278  0.00  0.00    +0.080 C 
ATOM     13  C   UNL     1       3.784   1.761 -22.275  0.00  0.00    +0.019 C 
ATOM     14  O   UNL     1       7.060   2.729 -22.672  0.00  0.00    -0.293 OA
ATOM     15  C   UNL     1       3.161   2.835 -22.662  0.00  0.00    -0.007 C 
ATOM     16  C   UNL     1       2.484   1.797 -22.271  0.00  0.00    +0.016 C 
ATOM     17  C   UNL     1      -2.002   3.229 -22.742  0.00  0.00    +0.121 C 
ATOM     18  C   UNL     1      -2.106   4.446 -23.188  0.00  0.00    +0.032 C 
ATOM     19  C   UNL     1      -0.906   4.910 -23.374  0.00  0.00    +0.007 C 
ATOM     20  C   UNL     1      -0.060   3.980 -23.042  0.00  0.00    +0.001 C 
ENDROOT
BRANCH  17  21
ATOM     21  O   UNL     1      -2.990   2.439 -22.439  0.00  0.00    -0.391 OA
ATOM     22  H   UNL     1      -3.720   2.961 -22.072  0.00  0.00    +0.210 HD
ENDBRANCH  17  21
TORSDOF 1
ENDMDL
