MODEL 1
REMARK VINA RESULT:   -10.744      0.000      0.000
REMARK INTER + INTRA:         -12.113
REMARK INTER:                 -11.969
REMARK INTRA:                  -0.143
REMARK UNBOUND:                -0.112
REMARK  Name = ZINC000035780661
REMARK  4 active torsions:
REMARK  status: ('A' for Active; 'I' for Inactive)
REMARK    1  A    between atoms: C_1  and  O_2
REMARK    2  A    between atoms: O_2  and  C_3
REMARK    3  A    between atoms: C_15  and  O_16
REMARK    4  A    between atoms: N_19  and  C_20
REMARK                            x       y       z     vdW  Elec       q    Type
REMARK                         _______ _______ _______ _____ _____    ______ ____
ROOT
ATOM      1  C   UNL     1       0.515   2.550 -23.230  0.00  0.00    +0.162 A 
ATOM      2  C   UNL     1       0.493   2.001 -22.090  0.00  0.00    +0.050 A 
ATOM      3  C   UNL     1      -0.582   1.890 -21.460  0.00  0.00    +0.008 A 
ATOM      4  C   UNL     1      -1.644   2.324 -21.958  0.00  0.00    -0.034 A 
ATOM      5  C   UNL     1      -1.646   2.875 -23.094  0.00  0.00    +0.015 A 
ATOM      6  C   UNL     1      -2.709   3.307 -23.589  0.00  0.00    +0.086 C 
ATOM      7  C   UNL     1      -3.855   3.836 -24.253  0.00  0.00    +0.070 C 
ATOM      8  C   UNL     1      -5.082   3.725 -23.566  0.00  0.00    +0.132 C 
ATOM      9  N   UNL     1      -5.069   3.109 -22.300  0.00  0.00    +0.238 N 
ATOM     10  H   UNL     1      -5.936   3.010 -21.772  0.00  0.00    +0.203 HD
ATOM     11  C   UNL     1      -6.114   2.972 -21.627  0.00  0.00    +0.191 C 
ATOM     12  C   UNL     1      -3.808   2.648 -21.820  0.00  0.00    +0.106 C 
ATOM     13  C   UNL     1      -3.780   3.195 -22.959  0.00  0.00    +0.141 C 
ATOM     14  C   UNL     1      -4.860   3.631 -23.454  0.00  0.00    +0.017 C 
ATOM     15  C   UNL     1      -4.853   4.176 -24.583  0.00  0.00    +0.049 C 
ATOM     16  C   UNL     1      -3.772   4.295 -25.231  0.00  0.00    +0.197 C 
ATOM     17  O   UNL     1      -3.767   4.840 -26.357  0.00  0.00    -0.289 OA
ATOM     18  C   UNL     1      -2.703   3.861 -24.734  0.00  0.00    +0.257 C 
ATOM     19  O   UNL     1      -1.212   3.672 -24.900  0.00  0.00    -0.476 OA
ATOM     20  C   UNL     1      -2.745   2.215 -21.323  0.00  0.00    +0.093 C 
ATOM     21  C   UNL     1      -0.563   2.989 -23.733  0.00  0.00    +0.167 A 
ENDROOT
BRANCH   1  23
ATOM     22  C   UNL     1       2.409   3.557 -23.551  0.00  0.00    +0.277 C 
ATOM     23  O   UNL     1       1.592   2.659 -23.857  0.00  0.00    -0.491 OA
ENDBRANCH   1  23
BRANCH  13  24
ATOM     24  O   UNL     1      -2.719   2.760 -22.456  0.00  0.00    -0.378 OA
ATOM     25  H   UNL     1      -2.734   2.903 -21.497  0.00  0.00    +0.211 HD
ENDBRANCH  13  24
TORSDOF 2
ENDMDL
MODEL 2
REMARK VINA RESULT:   -10.393      1.849      5.438
REMARK INTER + INTRA:         -11.720
REMARK INTER:                 -11.590
REMARK INTRA:                  -0.131
REMARK UNBOUND:                -0.112
REMARK  Name = ZINC000035780661
REMARK  4 active torsions:
REMARK  status: ('A' for Active; 'I' for Inactive)
REMARK    1  A    between atoms: C_1  and  O_2
REMARK    2  A    between atoms: O_2  and  C_3
REMARK    3  A    between atoms: C_15  and  O_16
REMARK    4  A    between atoms: N_19  and  C_20
REMARK                            x       y       z     vdW  Elec       q    Type
REMARK                         _______ _______ _______ _____ _____    ______ ____
ROOT
ATOM      1  C   UNL     1      -4.543   3.405 -22.488  0.00  0.00    +0.162 A 
ATOM      2  C   UNL     1      -4.806   3.871 -23.635  0.00  0.00    +0.050 A 
ATOM      3  C   UNL     1      -3.917   3.931 -24.514  0.00  0.00    +0.008 A 
ATOM      4  C   UNL     1      -2.760   3.530 -24.259  0.00  0.00    -0.034 A 
ATOM      5  C   UNL     1      -2.476   3.062 -23.122  0.00  0.00    +0.015 A 
ATOM      6  C   UNL     1      -1.319   2.661 -22.870  0.00  0.00    +0.086 C 
ATOM      7  C   UNL     1      -0.039   2.176 -22.469  0.00  0.00    +0.070 C 
ATOM      8  C   UNL     1       0.983   2.232 -23.439  0.00  0.00    +0.132 C 
ATOM      9  N   UNL     1       0.656   2.756 -24.704  0.00  0.00    +0.238 N 
ATOM     10  H   UNL     1       1.367   2.813 -25.433  0.00  0.00    +0.203 HD
ATOM     11  C   UNL     1       1.505   2.840 -25.619  0.00  0.00    +0.191 C 
ATOM     12  C   UNL     1      -0.690   3.187 -24.895  0.00  0.00    +0.106 C 
ATOM     13  C   UNL     1      -0.434   2.723 -23.748  0.00  0.00    +0.141 C 
ATOM     14  C   UNL     1       0.740   2.319 -23.500  0.00  0.00    +0.017 C 
ATOM     15  C   UNL     1       1.014   1.856 -22.368  0.00  0.00    +0.049 C 
ATOM     16  C   UNL     1       0.123   1.789 -21.470  0.00  0.00    +0.197 C 
ATOM     17  O   UNL     1       0.399   1.326 -20.341  0.00  0.00    -0.289 OA
ATOM     18  C   UNL     1      -1.039   2.191 -21.722  0.00  0.00    +0.257 C 
ATOM     19  O   UNL     1      -2.448   2.398 -21.212  0.00  0.00    -0.476 OA
ATOM     20  C   UNL     1      -1.847   3.588 -25.149  0.00  0.00    +0.093 C 
ATOM     21  C   UNL     1      -3.370   2.999 -22.232  0.00  0.00    +0.167 A 
ENDROOT
BRANCH   1  23
ATOM     22  C   UNL     1      -6.460   2.654 -21.805  0.00  0.00    +0.277 C 
ATOM     23  O   UNL     1      -5.434   3.346 -21.612  0.00  0.00    -0.491 OA
ENDBRANCH   1  23
BRANCH  13  24
ATOM     24  O   UNL     1      -1.590   3.126 -24.007  0.00  0.00    -0.378 OA
ATOM     25  H   UNL     1      -2.051   2.461 -24.543  0.00  0.00    +0.211 HD
ENDBRANCH  13  24
TORSDOF 2
ENDMDL
MODEL 3
REMARK VINA RESULT:   -10.086      1.365      2.995
REMARK INTER + INTRA:         -11.377
REMARK INTER:                 -11.252
REMARK INTRA:                  -0.125
REMARK UNBOUND:                -0.112
REMARK  Name = ZINC000035780661
REMARK  4 active torsions:
REMARK  status: ('A' for Active; 'I' for Inactive)
REMARK    1  A    between atoms: C_1  and  O_2
REMARK    2  A    between atoms: O_2  and  C_3
REMARK    3  A    between atoms: C_15  and  O_16
REMARK    4  A    between atoms: N_19  and  C_20
REMARK                            x       y       z     vdW  Elec       q    Type
REMARK                         _______ _______ _______ _____ _____    ______ ____
ROOT
ATOM      1  C   UNL     1       1.087   2.161 -22.504  0.00  0.00    +0.162 A 
ATOM      2  C   UNL     1       1.449   2.490 -23.671  0.00  0.00    +0.050 A 
ATOM      3  C   UNL     1       0.616   2.932 -24.493  0.00  0.00    +0.008 A 
ATOM      4  C   UNL     1      -0.585   3.050 -24.161  0.00  0.00    -0.034 A 
ATOM      5  C   UNL     1      -0.968   2.728 -23.003  0.00  0.00    +0.015 A 
ATOM      6  C   UNL     1      -2.168   2.847 -22.674  0.00  0.00    +0.086 C 
ATOM      7  C   UNL     1      -3.505   2.939 -22.187  0.00  0.00    +0.070 C 
ATOM      8  C   UNL     1      -4.467   3.434 -23.092  0.00  0.00    +0.132 C 
ATOM      9  N   UNL     1      -4.029   3.790 -24.382  0.00  0.00    +0.238 N 
ATOM     10  H   UNL     1      -4.695   4.152 -25.065  0.00  0.00    +0.203 HD
ATOM     11  C   UNL     1      -4.820   4.237 -25.243  0.00  0.00    +0.191 C 
ATOM     12  C   UNL     1      -2.642   3.618 -24.662  0.00  0.00    +0.106 C 
ATOM     13  C   UNL     1      -2.997   3.288 -23.496  0.00  0.00    +0.141 C 
ATOM     14  C   UNL     1      -4.215   3.412 -23.170  0.00  0.00    +0.017 C 
ATOM     15  C   UNL     1      -4.587   3.089 -22.017  0.00  0.00    +0.049 C 
ATOM     16  C   UNL     1      -3.753   2.641 -21.176  0.00  0.00    +0.197 C 
ATOM     17  O   UNL     1      -4.127   2.320 -20.026  0.00  0.00    -0.289 OA
ATOM     18  C   UNL     1      -2.548   2.521 -21.505  0.00  0.00    +0.257 C 
ATOM     19  O   UNL     1      -1.154   2.109 -21.087  0.00  0.00    -0.476 OA
ATOM     20  C   UNL     1      -1.442   3.500 -24.993  0.00  0.00    +0.093 C 
ATOM     21  C   UNL     1      -0.130   2.281 -22.170  0.00  0.00    +0.167 A 
ENDROOT
BRANCH   1  23
ATOM     22  C   UNL     1       2.666   0.761 -22.000  0.00  0.00    +0.277 C 
ATOM     23  O   UNL     1       1.923   1.719 -21.686  0.00  0.00    -0.491 OA
ENDBRANCH   1  23
BRANCH  13  24
ATOM     24  O   UNL     1      -1.798   3.171 -23.832  0.00  0.00    -0.378 OA
ATOM     25  H   UNL     1      -1.433   2.357 -23.451  0.00  0.00    +0.211 HD
ENDBRANCH  13  24
TORSDOF 2
ENDMDL
MODEL 4
REMARK VINA RESULT:    -9.777      1.934      4.894
REMARK INTER + INTRA:         -11.032
REMARK INTER:                 -10.924
REMARK INTRA:                  -0.108
REMARK UNBOUND:                -0.112
REMARK  Name = ZINC000035780661
REMARK  4 active torsions:
REMARK  status: ('A' for Active; 'I' for Inactive)
REMARK    1  A    between atoms: C_1  and  O_2
REMARK    2  A    between atoms: O_2  and  C_3
REMARK    3  A    between atoms: C_15  and  O_16
REMARK    4  A    between atoms: N_19  and  C_20
REMARK                            x       y       z     vdW  Elec       q    Type
REMARK                         _______ _______ _______ _____ _____    ______ ____
ROOT
ATOM      1  C   UNL     1      -3.569   3.495 -23.009  0.00  0.00    +0.162 A 
ATOM      2  C   UNL     1      -3.767   2.863 -21.931  0.00  0.00    +0.050 A 
ATOM      3  C   UNL     1      -2.828   2.257 -21.369  0.00  0.00    +0.008 A 
ATOM      4  C   UNL     1      -1.684   2.275 -21.874  0.00  0.00    -0.034 A 
ATOM      5  C   UNL     1      -1.464   2.899 -22.949  0.00  0.00    +0.015 A 
ATOM      6  C   UNL     1      -0.320   2.914 -23.452  0.00  0.00    +0.086 C 
ATOM      7  C   UNL     1       0.939   3.003 -24.117  0.00  0.00    +0.070 C 
ATOM      8  C   UNL     1       2.017   2.329 -23.506  0.00  0.00    +0.132 C 
ATOM      9  N   UNL     1       1.761   1.636 -22.308  0.00  0.00    +0.238 N 
ATOM     10  H   UNL     1       2.515   1.137 -21.836  0.00  0.00    +0.203 HD
ATOM     11  C   UNL     1       2.663   1.014 -21.704  0.00  0.00    +0.191 C 
ATOM     12  C   UNL     1       0.424   1.676 -21.813  0.00  0.00    +0.106 C 
ATOM     13  C   UNL     1       0.616   2.309 -22.890  0.00  0.00    +0.141 C 
ATOM     14  C   UNL     1       1.777   2.321 -23.393  0.00  0.00    +0.017 C 
ATOM     15  C   UNL     1       1.987   2.943 -24.462  0.00  0.00    +0.049 C 
ATOM     16  C   UNL     1       1.045   3.560 -25.040  0.00  0.00    +0.197 C 
ATOM     17  O   UNL     1       1.258   4.180 -26.106  0.00  0.00    -0.289 OA
ATOM     18  C   UNL     1      -0.104   3.545 -24.536  0.00  0.00    +0.257 C 
ATOM     19  O   UNL     1      -1.543   3.996 -24.645  0.00  0.00    -0.476 OA
ATOM     20  C   UNL     1      -0.720   1.660 -21.309  0.00  0.00    +0.093 C 
ATOM     21  C   UNL     1      -2.409   3.512 -23.520  0.00  0.00    +0.167 A 
ENDROOT
BRANCH   1  23
ATOM     22  C   UNL     1      -4.926   3.719 -24.686  0.00  0.00    +0.277 C 
ATOM     23  O   UNL     1      -4.511   4.099 -23.568  0.00  0.00    -0.491 OA
ENDBRANCH   1  23
BRANCH  13  24
ATOM     24  O   UNL     1      -0.527   2.289 -22.381  0.00  0.00    -0.378 OA
ATOM     25  H   UNL     1      -0.603   3.004 -21.730  0.00  0.00    +0.211 HD
ENDBRANCH  13  24
TORSDOF 2
ENDMDL
MODEL 5
REMARK VINA RESULT:    -9.735      2.585      6.432
REMARK INTER + INTRA:         -10.985
REMARK INTER:                 -10.858
REMARK INTRA:                  -0.127
REMARK UNBOUND:                -0.112
REMARK  Name = ZINC000035780661
REMARK  4 active torsions:
REMARK  status: ('A' for Active; 'I' for Inactive)
REMARK    1  A    between atoms: C_1  and  O_2
REMARK    2  A    between atoms: O_2  and  C_3
REMARK    3  A    between atoms: C_15  and  O_16
REMARK    4  A    between atoms: N_19  and  C_20
REMARK                            x       y       z     vdW  Elec       q    Type
REMARK                         _______ _______ _______ _____ _____    ______ ____
ROOT
ATOM      1  C   UNL     1      -1.743   3.275 -23.293  0.00  0.00    +0.162 A 
ATOM      2  C   UNL     1      -1.762   4.513 -23.557  0.00  0.00    +0.050 A 
ATOM      3  C   UNL     1      -0.698   5.170 -23.592  0.00  0.00    +0.008 A 
ATOM      4  C   UNL     1       0.393   4.603 -23.365  0.00  0.00    -0.034 A 
ATOM      5  C   UNL     1       0.436   3.370 -23.098  0.00  0.00    +0.015 A 
ATOM      6  C   UNL     1       1.528   2.806 -22.871  0.00  0.00    +0.086 C 
ATOM      7  C   UNL     1       2.710   2.057 -22.596  0.00  0.00    +0.070 C 
ATOM      8  C   UNL     1       3.925   2.772 -22.628  0.00  0.00    +0.132 C 
ATOM      9  N   UNL     1       3.866   4.147 -22.926  0.00  0.00    +0.238 N 
ATOM     10  H   UNL     1       4.724   4.699 -22.959  0.00  0.00    +0.203 HD
ATOM     11  C   UNL     1       4.899   4.852 -22.974  0.00  0.00    +0.191 C 
ATOM     12  C   UNL     1       2.575   4.700 -23.170  0.00  0.00    +0.106 C 
ATOM     13  C   UNL     1       2.587   3.464 -22.907  0.00  0.00    +0.141 C 
ATOM     14  C   UNL     1       3.697   2.899 -22.678  0.00  0.00    +0.017 C 
ATOM     15  C   UNL     1       3.730   1.674 -22.414  0.00  0.00    +0.049 C 
ATOM     16  C   UNL     1       2.661   0.997 -22.376  0.00  0.00    +0.197 C 
ATOM     17  O   UNL     1       2.697  -0.226 -22.113  0.00  0.00    -0.289 OA
ATOM     18  C   UNL     1       1.564   1.562 -22.604  0.00  0.00    +0.257 C 
ATOM     19  O   UNL     1       0.063   1.419 -22.721  0.00  0.00    -0.476 OA
ATOM     20  C   UNL     1       1.483   5.265 -23.398  0.00  0.00    +0.093 C 
ATOM     21  C   UNL     1      -0.636   2.702 -23.062  0.00  0.00    +0.167 A 
ENDROOT
BRANCH   1  23
ATOM     22  C   UNL     1      -3.744   2.983 -22.509  0.00  0.00    +0.277 C 
ATOM     23  O   UNL     1      -2.809   2.621 -23.259  0.00  0.00    -0.491 OA
ENDBRANCH   1  23
BRANCH  13  24
ATOM     24  O   UNL     1       1.498   4.035 -23.135  0.00  0.00    -0.378 OA
ATOM     25  H   UNL     1       1.193   4.482 -22.330  0.00  0.00    +0.211 HD
ENDBRANCH  13  24
TORSDOF 2
ENDMDL
MODEL 6
REMARK VINA RESULT:    -9.123      1.883      4.419
REMARK INTER + INTRA:         -10.301
REMARK INTER:                 -10.154
REMARK INTRA:                  -0.148
REMARK UNBOUND:                -0.112
REMARK  Name = ZINC000035780661
REMARK  4 active torsions:
REMARK  status: ('A' for Active; 'I' for Inactive)
REMARK    1  A    between atoms: C_1  and  O_2
REMARK    2  A    between atoms: O_2  and  C_3
REMARK    3  A    between atoms: C_15  and  O_16
REMARK    4  A    between atoms: N_19  and  C_20
REMARK                            x       y       z     vdW  Elec       q    Type
REMARK                         _______ _______ _______ _____ _____    ______ ____
ROOT
ATOM      1  C   UNL     1      -4.889   3.377 -21.797  0.00  0.00    +0.162 A 
ATOM      2  C   UNL     1      -4.240   3.328 -20.711  0.00  0.00    +0.050 A 
ATOM      3  C   UNL     1      -2.989   3.320 -20.720  0.00  0.00    +0.008 A 
ATOM      4  C   UNL     1      -2.373   3.361 -21.808  0.00  0.00    -0.034 A 
ATOM      5  C   UNL     1      -2.999   3.411 -22.902  0.00  0.00    +0.015 A 
ATOM      6  C   UNL     1      -2.381   3.452 -23.988  0.00  0.00    +0.086 C 
ATOM      7  C   UNL     1      -1.786   3.502 -25.283  0.00  0.00    +0.070 C 
ATOM      8  C   UNL     1      -0.376   3.494 -25.323  0.00  0.00    +0.132 C 
ATOM      9  N   UNL     1       0.313   3.438 -24.097  0.00  0.00    +0.238 N 
ATOM     10  H   UNL     1       1.333   3.431 -24.085  0.00  0.00    +0.203 HD
ATOM     11  C   UNL     1       1.564   3.427 -24.047  0.00  0.00    +0.191 C 
ATOM     12  C   UNL     1      -0.480   3.394 -22.913  0.00  0.00    +0.106 C 
ATOM     13  C   UNL     1      -1.133   3.443 -23.993  0.00  0.00    +0.141 C 
ATOM     14  C   UNL     1      -0.500   3.485 -25.089  0.00  0.00    +0.017 C 
ATOM     15  C   UNL     1      -1.130   3.534 -26.172  0.00  0.00    +0.049 C 
ATOM     16  C   UNL     1      -2.396   3.543 -26.177  0.00  0.00    +0.197 C 
ATOM     17  O   UNL     1      -3.023   3.592 -27.258  0.00  0.00    -0.289 OA
ATOM     18  C   UNL     1      -3.019   3.502 -25.087  0.00  0.00    +0.257 C 
ATOM     19  O   UNL     1      -4.362   3.482 -24.394  0.00  0.00    -0.476 OA
ATOM     20  C   UNL     1      -1.097   3.353 -21.826  0.00  0.00    +0.093 C 
ATOM     21  C   UNL     1      -4.262   3.419 -22.898  0.00  0.00    +0.167 A 
ENDROOT
BRANCH   1  23
ATOM     22  C   UNL     1      -6.774   2.307 -21.734  0.00  0.00    +0.277 C 
ATOM     23  O   UNL     1      -6.140   3.385 -21.784  0.00  0.00    -0.491 OA
ENDBRANCH   1  23
BRANCH  13  24
ATOM     24  O   UNL     1      -1.746   3.402 -22.903  0.00  0.00    -0.378 OA
ATOM     25  H   UNL     1      -1.132   3.610 -22.180  0.00  0.00    +0.211 HD
ENDBRANCH  13  24
TORSDOF 2
ENDMDL
MODEL 7
REMARK VINA RESULT:    -8.758      2.353      3.887
REMARK INTER + INTRA:          -9.894
REMARK INTER:                  -9.743
REMARK INTRA:                  -0.151
REMARK UNBOUND:                -0.112
REMARK  Name = ZINC000035780661
REMARK  4 active torsions:
REMARK  status: ('A' for Active; 'I' for Inactive)
REMARK    1  A    between atoms: C_1  and  O_2
REMARK    2  A    between atoms: O_2  and  C_3
REMARK    3  A    between atoms: C_15  and  O_16
REMARK    4  A    between atoms: N_19  and  C_20
REMARK                            x       y       z     vdW  Elec       q    Type
REMARK                         _______ _______ _______ _____ _____    ______ ____
ROOT
ATOM      1  C   UNL     1       3.972   1.720 -21.926  0.00  0.00    +0.162 A 
ATOM      2  C   UNL     1       3.522   1.175 -20.876  0.00  0.00    +0.050 A 
ATOM      3  C   UNL     1       2.291   1.141 -20.657  0.00  0.00    +0.008 A 
ATOM      4  C   UNL     1       1.497   1.647 -21.480  0.00  0.00    -0.034 A 
ATOM      5  C   UNL     1       1.924   2.195 -22.534  0.00  0.00    +0.015 A 
ATOM      6  C   UNL     1       1.128   2.700 -23.356  0.00  0.00    +0.086 C 
ATOM      7  C   UNL     1       0.319   3.307 -24.361  0.00  0.00    +0.070 C 
ATOM      8  C   UNL     1      -1.074   3.283 -24.141  0.00  0.00    +0.132 C 
ATOM      9  N   UNL     1      -1.540   2.669 -22.963  0.00  0.00    +0.238 N 
ATOM     10  H   UNL     1      -2.540   2.632 -22.767  0.00  0.00    +0.203 HD
ATOM     11  C   UNL     1      -2.760   2.606 -22.693  0.00  0.00    +0.191 C 
ATOM     12  C   UNL     1      -0.555   2.122 -22.088  0.00  0.00    +0.106 C 
ATOM     13  C   UNL     1      -0.100   2.664 -23.135  0.00  0.00    +0.141 C 
ATOM     14  C   UNL     1      -0.912   3.173 -23.962  0.00  0.00    +0.017 C 
ATOM     15  C   UNL     1      -0.479   3.716 -25.006  0.00  0.00    +0.049 C 
ATOM     16  C   UNL     1       0.765   3.757 -25.240  0.00  0.00    +0.197 C 
ATOM     17  O   UNL     1       1.193   4.299 -26.283  0.00  0.00    -0.289 OA
ATOM     18  C   UNL     1       1.565   3.251 -24.416  0.00  0.00    +0.257 C 
ATOM     19  O   UNL     1       3.005   2.957 -24.063  0.00  0.00    -0.476 OA
ATOM     20  C   UNL     1       0.240   1.616 -21.266  0.00  0.00    +0.093 C 
ATOM     21  C   UNL     1       3.166   2.232 -22.760  0.00  0.00    +0.167 A 
ENDROOT
BRANCH   1  23
ATOM     22  C   UNL     1       5.880   2.740 -21.775  0.00  0.00    +0.277 C 
ATOM     23  O   UNL     1       5.204   1.752 -22.141  0.00  0.00    -0.491 OA
ENDBRANCH   1  23
BRANCH  13  24
ATOM     24  O   UNL     1       0.691   2.156 -22.308  0.00  0.00    -0.378 OA
ATOM     25  H   UNL     1       1.604   2.347 -22.576  0.00  0.00    +0.211 HD
ENDBRANCH  13  24
TORSDOF 2
ENDMDL
MODEL 8
REMARK VINA RESULT:    -8.296      2.946      4.818
REMARK INTER + INTRA:          -9.378
REMARK INTER:                  -9.344
REMARK INTRA:                  -0.034
REMARK UNBOUND:                -0.112
REMARK  Name = ZINC000035780661
REMARK  4 active torsions:
REMARK  status: ('A' for Active; 'I' for Inactive)
REMARK    1  A    between atoms: C_1  and  O_2
REMARK    2  A    between atoms: O_2  and  C_3
REMARK    3  A    between atoms: C_15  and  O_16
REMARK    4  A    between atoms: N_19  and  C_20
REMARK                            x       y       z     vdW  Elec       q    Type
REMARK                         _______ _______ _______ _____ _____    ______ ____
ROOT
ATOM      1  C   UNL     1       4.223   1.667 -22.520  0.00  0.00    +0.162 A 
ATOM      2  C   UNL     1       4.736   2.637 -23.150  0.00  0.00    +0.050 A 
ATOM      3  C   UNL     1       4.021   3.580 -23.555  0.00  0.00    +0.008 A 
ATOM      4  C   UNL     1       2.789   3.567 -23.336  0.00  0.00    -0.034 A 
ATOM      5  C   UNL     1       2.256   2.610 -22.709  0.00  0.00    +0.015 A 
ATOM      6  C   UNL     1       1.026   2.599 -22.492  0.00  0.00    +0.086 C 
ATOM      7  C   UNL     1      -0.362   2.478 -22.186  0.00  0.00    +0.070 C 
ATOM      8  C   UNL     1      -1.194   3.527 -22.630  0.00  0.00    +0.132 C 
ATOM      9  N   UNL     1      -0.590   4.590 -23.328  0.00  0.00    +0.238 N 
ATOM     10  H   UNL     1      -1.157   5.367 -23.666  0.00  0.00    +0.203 HD
ATOM     11  C   UNL     1      -1.257   5.558 -23.755  0.00  0.00    +0.191 C 
ATOM     12  C   UNL     1       0.820   4.512 -23.527  0.00  0.00    +0.106 C 
ATOM     13  C   UNL     1       0.314   3.541 -22.897  0.00  0.00    +0.141 C 
ATOM     14  C   UNL     1      -0.933   3.537 -22.680  0.00  0.00    +0.017 C 
ATOM     15  C   UNL     1      -1.454   2.582 -22.057  0.00  0.00    +0.049 C 
ATOM     16  C   UNL     1      -0.742   1.621 -21.642  0.00  0.00    +0.197 C 
ATOM     17  O   UNL     1      -1.264   0.670 -21.020  0.00  0.00    -0.289 OA
ATOM     18  C   UNL     1       0.495   1.631 -21.859  0.00  0.00    +0.257 C 
ATOM     19  O   UNL     1       1.819   0.920 -21.689  0.00  0.00    -0.476 OA
ATOM     20  C   UNL     1       2.051   4.524 -23.745  0.00  0.00    +0.093 C 
ATOM     21  C   UNL     1       2.975   1.655 -22.299  0.00  0.00    +0.167 A 
ENDROOT
BRANCH   1  23
ATOM     22  C   UNL     1       4.935   0.403 -20.907  0.00  0.00    +0.277 C 
ATOM     23  O   UNL     1       4.942   0.726 -22.117  0.00  0.00    -0.491 OA
ENDBRANCH   1  23
BRANCH  13  24
ATOM     24  O   UNL     1       1.545   3.558 -23.118  0.00  0.00    -0.378 OA
ATOM     25  H   UNL     1       1.703   3.499 -24.073  0.00  0.00    +0.211 HD
ENDBRANCH  13  24
TORSDOF 2
ENDMDL
MODEL 9
REMARK VINA RESULT:    -8.130      3.114      6.890
REMARK INTER + INTRA:          -9.192
REMARK INTER:                  -9.080
REMARK INTRA:                  -0.112
REMARK UNBOUND:                -0.112
REMARK  Name = ZINC000035780661
REMARK  4 active torsions:
REMARK  status: ('A' for Active; 'I' for Inactive)
REMARK    1  A    between atoms: C_1  and  O_2
REMARK    2  A    between atoms: O_2  and  C_3
REMARK    3  A    between atoms: C_15  and  O_16
REMARK    4  A    between atoms: N_19  and  C_20
REMARK                            x       y       z     vdW  Elec       q    Type
REMARK                         _______ _______ _______ _____ _____    ______ ____
ROOT
ATOM      1  C   UNL     1      -0.199   3.657 -23.382  0.00  0.00    +0.162 A 
ATOM      2  C   UNL     1      -0.805   2.678 -22.855  0.00  0.00    +0.050 A 
ATOM      3  C   UNL     1      -0.166   1.793 -22.243  0.00  0.00    +0.008 A 
ATOM      4  C   UNL     1       1.078   1.874 -22.150  0.00  0.00    -0.034 A 
ATOM      5  C   UNL     1       1.702   2.842 -22.667  0.00  0.00    +0.015 A 
ATOM      6  C   UNL     1       2.946   2.920 -22.572  0.00  0.00    +0.086 C 
ATOM      7  C   UNL     1       4.358   3.115 -22.528  0.00  0.00    +0.070 C 
ATOM      8  C   UNL     1       5.104   2.132 -21.844  0.00  0.00    +0.132 C 
ATOM      9  N   UNL     1       4.399   1.057 -21.271  0.00  0.00    +0.238 N 
ATOM     10  H   UNL     1       4.902   0.326 -20.768  0.00  0.00    +0.203 HD
ATOM     11  C   UNL     1       4.986   0.145 -20.648  0.00  0.00    +0.191 C 
ATOM     12  C   UNL     1       2.982   1.056 -21.433  0.00  0.00    +0.106 C 
ATOM     13  C   UNL     1       3.580   2.036 -21.961  0.00  0.00    +0.141 C 
ATOM     14  C   UNL     1       4.840   2.108 -21.860  0.00  0.00    +0.017 C 
ATOM     15  C   UNL     1       5.452   3.073 -22.377  0.00  0.00    +0.049 C 
ATOM     16  C   UNL     1       4.818   3.976 -22.999  0.00  0.00    +0.197 C 
ATOM     17  O   UNL     1       5.431   4.937 -23.514  0.00  0.00    -0.289 OA
ATOM     18  C   UNL     1       3.569   3.898 -23.095  0.00  0.00    +0.257 C 
ATOM     19  O   UNL     1       2.296   4.522 -23.621  0.00  0.00    -0.476 OA
ATOM     20  C   UNL     1       1.738   0.976 -21.527  0.00  0.00    +0.093 C 
ATOM     21  C   UNL     1       1.062   3.737 -23.286  0.00  0.00    +0.167 A 
ENDROOT
BRANCH   1  23
ATOM     22  C   UNL     1      -2.091   4.489 -24.040  0.00  0.00    +0.277 C 
ATOM     23  O   UNL     1      -0.841   4.540 -23.993  0.00  0.00    -0.491 OA
ENDBRANCH   1  23
BRANCH  13  24
ATOM     24  O   UNL     1       2.335   1.951 -22.052  0.00  0.00    -0.378 OA
ATOM     25  H   UNL     1       2.094   1.697 -22.957  0.00  0.00    +0.211 HD
ENDBRANCH  13  24
TORSDOF 2
ENDMDL
