MODEL 1
REMARK VINA RESULT:   -11.765      0.000      0.000
REMARK INTER + INTRA:         -12.109
REMARK INTER:                 -12.109
REMARK INTRA:                   0.000
REMARK UNBOUND:                 0.000
REMARK  Name = C[C@]12CC[C@H]3[C@@H](CCC4=CC(=O)CC[C@@]43C)[C@@H]1CC[C@@H]2O        ZINC000118912393
REMARK  3 active torsions:
REMARK  status: ('A' for Active; 'I' for Inactive)
REMARK    1  A    between atoms: C_1  and  C_2
REMARK    2  A    between atoms: C_15  and  C_16
REMARK    3  A    between atoms: C_20  and  O_21
REMARK                            x       y       z     vdW  Elec       q    Type
REMARK                         _______ _______ _______ _____ _____    ______ ____
ROOT
ATOM      1  C   UNL     1      -4.908   3.133 -21.960  0.00  0.00    +0.014 C 
ATOM      2  C   UNL     1      -3.994   3.322 -22.865  0.00  0.00    -0.003 C 
ATOM      3  C   UNL     1      -3.558   2.744 -21.786  0.00  0.00    +0.010 C 
ATOM      4  C   UNL     1      -2.305   2.410 -21.688  0.00  0.00    +0.005 C 
ATOM      5  C   UNL     1      -1.489   2.655 -22.669  0.00  0.00    +0.002 C 
ATOM      6  C   UNL     1      -1.925   3.233 -23.749  0.00  0.00    -0.003 C 
ATOM      7  C   UNL     1      -1.108   3.479 -24.730  0.00  0.00    +0.008 C 
ATOM      8  C   UNL     1       0.145   3.145 -24.632  0.00  0.00    +0.032 C 
ATOM      9  C   UNL     1       0.581   2.567 -23.553  0.00  0.00    -0.060 C 
ATOM     10  C   UNL     1       1.833   2.234 -23.455  0.00  0.00    +0.046 C 
ATOM     11  C   UNL     1       2.269   1.656 -22.375  0.00  0.00    +0.156 C 
ATOM     12  C   UNL     1       1.453   1.411 -21.394  0.00  0.00    +0.080 C 
ATOM     13  C   UNL     1       0.201   1.744 -21.491  0.00  0.00    +0.019 C 
ATOM     14  O   UNL     1       3.523   1.323 -22.277  0.00  0.00    -0.293 OA
ATOM     15  C   UNL     1      -0.236   2.323 -22.571  0.00  0.00    -0.007 C 
ATOM     16  C   UNL     1      -1.052   2.077 -21.590  0.00  0.00    +0.016 C 
ATOM     17  C   UNL     1      -5.174   3.746 -23.209  0.00  0.00    +0.121 C 
ATOM     18  C   UNL     1      -5.087   4.254 -24.403  0.00  0.00    +0.032 C 
ATOM     19  C   UNL     1      -3.853   4.143 -24.797  0.00  0.00    +0.007 C 
ATOM     20  C   UNL     1      -3.178   3.567 -23.847  0.00  0.00    +0.001 C 
ENDROOT
BRANCH  17  21
ATOM     21  O   UNL     1      -6.252   3.676 -22.486  0.00  0.00    -0.391 OA
ATOM     22  H   UNL     1      -6.923   4.276 -22.847  0.00  0.00    +0.210 HD
ENDBRANCH  17  21
TORSDOF 1
ENDMDL
MODEL 2
REMARK VINA RESULT:   -11.646      0.869      2.486
REMARK INTER + INTRA:         -11.986
REMARK INTER:                 -11.986
REMARK INTRA:                   0.000
REMARK UNBOUND:                 0.000
REMARK  Name = C[C@]12CC[C@H]3[C@@H](CCC4=CC(=O)CC[C@@]43C)[C@@H]1CC[C@@H]2O        ZINC000118912393
REMARK  3 active torsions:
REMARK  status: ('A' for Active; 'I' for Inactive)
REMARK    1  A    between atoms: C_1  and  C_2
REMARK    2  A    between atoms: C_15  and  C_16
REMARK    3  A    between atoms: C_20  and  O_21
REMARK                            x       y       z     vdW  Elec       q    Type
REMARK                         _______ _______ _______ _____ _____    ______ ____
ROOT
ATOM      1  C   UNL     1      -4.594   3.840 -23.867  0.00  0.00    +0.014 C 
ATOM      2  C   UNL     1      -3.752   3.286 -23.046  0.00  0.00    -0.003 C 
ATOM      3  C   UNL     1      -3.225   3.657 -24.174  0.00  0.00    +0.010 C 
ATOM      4  C   UNL     1      -1.958   3.461 -24.396  0.00  0.00    +0.005 C 
ATOM      5  C   UNL     1      -1.221   2.893 -23.488  0.00  0.00    +0.002 C 
ATOM      6  C   UNL     1      -1.749   2.522 -22.360  0.00  0.00    -0.003 C 
ATOM      7  C   UNL     1      -1.011   1.954 -21.452  0.00  0.00    +0.008 C 
ATOM      8  C   UNL     1       0.255   1.758 -21.673  0.00  0.00    +0.032 C 
ATOM      9  C   UNL     1       0.783   2.129 -22.802  0.00  0.00    -0.060 C 
ATOM     10  C   UNL     1       2.049   1.932 -23.022  0.00  0.00    +0.046 C 
ATOM     11  C   UNL     1       2.577   2.304 -24.151  0.00  0.00    +0.156 C 
ATOM     12  C   UNL     1       1.839   2.871 -25.058  0.00  0.00    +0.080 C 
ATOM     13  C   UNL     1       0.574   3.068 -24.838  0.00  0.00    +0.019 C 
ATOM     14  O   UNL     1       3.843   2.107 -24.372  0.00  0.00    -0.293 OA
ATOM     15  C   UNL     1       0.045   2.696 -23.709  0.00  0.00    -0.007 C 
ATOM     16  C   UNL     1      -0.693   3.264 -24.616  0.00  0.00    +0.016 C 
ATOM     17  C   UNL     1      -4.966   3.365 -22.585  0.00  0.00    +0.121 C 
ATOM     18  C   UNL     1      -4.977   2.847 -21.393  0.00  0.00    +0.032 C 
ATOM     19  C   UNL     1      -3.772   2.447 -21.117  0.00  0.00    +0.007 C 
ATOM     20  C   UNL     1      -3.015   2.718 -22.138  0.00  0.00    +0.001 C 
ENDROOT
BRANCH  17  21
ATOM     21  O   UNL     1      -5.988   3.874 -23.207  0.00  0.00    -0.391 OA
ATOM     22  H   UNL     1      -6.728   3.968 -22.588  0.00  0.00    +0.210 HD
ENDBRANCH  17  21
TORSDOF 1
ENDMDL
MODEL 3
REMARK VINA RESULT:   -11.212      0.776      5.579
REMARK INTER + INTRA:         -11.539
REMARK INTER:                 -11.539
REMARK INTRA:                   0.000
REMARK UNBOUND:                 0.000
REMARK  Name = C[C@]12CC[C@H]3[C@@H](CCC4=CC(=O)CC[C@@]43C)[C@@H]1CC[C@@H]2O        ZINC000118912393
REMARK  3 active torsions:
REMARK  status: ('A' for Active; 'I' for Inactive)
REMARK    1  A    between atoms: C_1  and  C_2
REMARK    2  A    between atoms: C_15  and  C_16
REMARK    3  A    between atoms: C_20  and  O_21
REMARK                            x       y       z     vdW  Elec       q    Type
REMARK                         _______ _______ _______ _____ _____    ______ ____
ROOT
ATOM      1  C   UNL     1       2.117   1.497 -21.921  0.00  0.00    +0.014 C 
ATOM      2  C   UNL     1       1.357   2.068 -22.807  0.00  0.00    -0.003 C 
ATOM      3  C   UNL     1       0.734   1.720 -21.721  0.00  0.00    +0.010 C 
ATOM      4  C   UNL     1      -0.540   1.953 -21.600  0.00  0.00    +0.005 C 
ATOM      5  C   UNL     1      -1.189   2.535 -22.565  0.00  0.00    +0.002 C 
ATOM      6  C   UNL     1      -0.565   2.883 -23.651  0.00  0.00    -0.003 C 
ATOM      7  C   UNL     1      -1.214   3.464 -24.615  0.00  0.00    +0.008 C 
ATOM      8  C   UNL     1      -2.487   3.698 -24.494  0.00  0.00    +0.032 C 
ATOM      9  C   UNL     1      -3.111   3.350 -23.408  0.00  0.00    -0.060 C 
ATOM     10  C   UNL     1      -4.384   3.583 -23.287  0.00  0.00    +0.046 C 
ATOM     11  C   UNL     1      -5.007   3.235 -22.201  0.00  0.00    +0.156 C 
ATOM     12  C   UNL     1      -4.359   2.654 -21.236  0.00  0.00    +0.080 C 
ATOM     13  C   UNL     1      -3.086   2.420 -21.357  0.00  0.00    +0.019 C 
ATOM     14  O   UNL     1      -6.281   3.469 -22.079  0.00  0.00    -0.293 OA
ATOM     15  C   UNL     1      -2.461   2.768 -22.443  0.00  0.00    -0.007 C 
ATOM     16  C   UNL     1      -1.813   2.187 -21.479  0.00  0.00    +0.016 C 
ATOM     17  C   UNL     1       2.600   1.951 -23.173  0.00  0.00    +0.121 C 
ATOM     18  C   UNL     1       2.718   2.460 -24.363  0.00  0.00    +0.032 C 
ATOM     19  C   UNL     1       1.550   2.892 -24.733  0.00  0.00    +0.007 C 
ATOM     20  C   UNL     1       0.709   2.649 -23.772  0.00  0.00    +0.001 C 
ENDROOT
BRANCH  17  21
ATOM     21  O   UNL     1       3.556   1.418 -22.471  0.00  0.00    -0.391 OA
ATOM     22  H   UNL     1       4.003   2.108 -21.957  0.00  0.00    +0.210 HD
ENDBRANCH  17  21
TORSDOF 1
ENDMDL
MODEL 4
REMARK VINA RESULT:   -10.683      0.937      6.178
REMARK INTER + INTRA:         -10.995
REMARK INTER:                 -10.995
REMARK INTRA:                   0.000
REMARK UNBOUND:                 0.000
REMARK  Name = C[C@]12CC[C@H]3[C@@H](CCC4=CC(=O)CC[C@@]43C)[C@@H]1CC[C@@H]2O        ZINC000118912393
REMARK  3 active torsions:
REMARK  status: ('A' for Active; 'I' for Inactive)
REMARK    1  A    between atoms: C_1  and  C_2
REMARK    2  A    between atoms: C_15  and  C_16
REMARK    3  A    between atoms: C_20  and  O_21
REMARK                            x       y       z     vdW  Elec       q    Type
REMARK                         _______ _______ _______ _____ _____    ______ ____
ROOT
ATOM      1  C   UNL     1       2.865   2.392 -24.463  0.00  0.00    +0.014 C 
ATOM      2  C   UNL     1       2.024   2.191 -23.493  0.00  0.00    -0.003 C 
ATOM      3  C   UNL     1       1.493   2.729 -24.551  0.00  0.00    +0.010 C 
ATOM      4  C   UNL     1       0.225   3.016 -24.568  0.00  0.00    +0.005 C 
ATOM      5  C   UNL     1      -0.512   2.765 -23.527  0.00  0.00    +0.002 C 
ATOM      6  C   UNL     1       0.019   2.227 -22.469  0.00  0.00    -0.003 C 
ATOM      7  C   UNL     1      -0.718   1.975 -21.428  0.00  0.00    +0.008 C 
ATOM      8  C   UNL     1      -1.987   2.262 -21.446  0.00  0.00    +0.032 C 
ATOM      9  C   UNL     1      -2.517   2.800 -22.503  0.00  0.00    -0.060 C 
ATOM     10  C   UNL     1      -3.784   3.087 -22.520  0.00  0.00    +0.046 C 
ATOM     11  C   UNL     1      -4.315   3.625 -23.578  0.00  0.00    +0.156 C 
ATOM     12  C   UNL     1      -3.578   3.877 -24.619  0.00  0.00    +0.080 C 
ATOM     13  C   UNL     1      -2.310   3.590 -24.602  0.00  0.00    +0.019 C 
ATOM     14  O   UNL     1      -5.583   3.912 -23.595  0.00  0.00    -0.293 OA
ATOM     15  C   UNL     1      -1.779   3.051 -23.544  0.00  0.00    -0.007 C 
ATOM     16  C   UNL     1      -1.042   3.303 -24.585  0.00  0.00    +0.016 C 
ATOM     17  C   UNL     1       3.239   1.816 -23.224  0.00  0.00    +0.121 C 
ATOM     18  C   UNL     1       3.253   1.332 -22.018  0.00  0.00    +0.032 C 
ATOM     19  C   UNL     1       2.047   1.409 -21.541  0.00  0.00    +0.007 C 
ATOM     20  C   UNL     1       1.287   1.940 -22.452  0.00  0.00    +0.001 C 
ENDROOT
BRANCH  17  21
ATOM     21  O   UNL     1       4.262   1.908 -24.022  0.00  0.00    -0.391 OA
ATOM     22  H   UNL     1       4.441   2.841 -24.212  0.00  0.00    +0.210 HD
ENDBRANCH  17  21
TORSDOF 1
ENDMDL
MODEL 5
REMARK VINA RESULT:   -10.428      1.110      1.929
REMARK INTER + INTRA:         -10.733
REMARK INTER:                 -10.733
REMARK INTRA:                   0.000
REMARK UNBOUND:                 0.000
REMARK  Name = C[C@]12CC[C@H]3[C@@H](CCC4=CC(=O)CC[C@@]43C)[C@@H]1CC[C@@H]2O        ZINC000118912393
REMARK  3 active torsions:
REMARK  status: ('A' for Active; 'I' for Inactive)
REMARK    1  A    between atoms: C_1  and  C_2
REMARK    2  A    between atoms: C_15  and  C_16
REMARK    3  A    between atoms: C_20  and  O_21
REMARK                            x       y       z     vdW  Elec       q    Type
REMARK                         _______ _______ _______ _____ _____    ______ ____
ROOT
ATOM      1  C   UNL     1      -3.020   2.598 -21.752  0.00  0.00    +0.014 C 
ATOM      2  C   UNL     1      -2.142   2.793 -22.691  0.00  0.00    -0.003 C 
ATOM      3  C   UNL     1      -1.672   2.180 -21.646  0.00  0.00    +0.010 C 
ATOM      4  C   UNL     1      -0.423   1.821 -21.610  0.00  0.00    +0.005 C 
ATOM      5  C   UNL     1       0.356   2.076 -22.619  0.00  0.00    +0.002 C 
ATOM      6  C   UNL     1      -0.115   2.690 -23.664  0.00  0.00    -0.003 C 
ATOM      7  C   UNL     1       0.663   2.945 -24.674  0.00  0.00    +0.008 C 
ATOM      8  C   UNL     1       1.913   2.587 -24.638  0.00  0.00    +0.032 C 
ATOM      9  C   UNL     1       2.383   1.973 -23.593  0.00  0.00    -0.060 C 
ATOM     10  C   UNL     1       3.632   1.615 -23.558  0.00  0.00    +0.046 C 
ATOM     11  C   UNL     1       4.103   1.001 -22.513  0.00  0.00    +0.156 C 
ATOM     12  C   UNL     1       3.324   0.746 -21.503  0.00  0.00    +0.080 C 
ATOM     13  C   UNL     1       2.076   1.104 -21.538  0.00  0.00    +0.019 C 
ATOM     14  O   UNL     1       5.352   0.643 -22.477  0.00  0.00    -0.293 OA
ATOM     15  C   UNL     1       1.604   1.718 -22.584  0.00  0.00    -0.007 C 
ATOM     16  C   UNL     1       0.826   1.463 -21.574  0.00  0.00    +0.016 C 
ATOM     17  C   UNL     1      -3.327   3.248 -22.972  0.00  0.00    +0.121 C 
ATOM     18  C   UNL     1      -3.281   3.784 -24.156  0.00  0.00    +0.032 C 
ATOM     19  C   UNL     1      -2.068   3.661 -24.605  0.00  0.00    +0.007 C 
ATOM     20  C   UNL     1      -1.364   3.049 -23.700  0.00  0.00    +0.001 C 
ENDROOT
BRANCH  17  21
ATOM     21  O   UNL     1      -4.375   3.179 -22.205  0.00  0.00    -0.391 OA
ATOM     22  H   UNL     1      -4.485   2.269 -21.889  0.00  0.00    +0.210 HD
ENDBRANCH  17  21
TORSDOF 1
ENDMDL
MODEL 6
REMARK VINA RESULT:    -9.627      1.750      6.796
REMARK INTER + INTRA:          -9.909
REMARK INTER:                  -9.909
REMARK INTRA:                   0.000
REMARK UNBOUND:                 0.000
REMARK  Name = C[C@]12CC[C@H]3[C@@H](CCC4=CC(=O)CC[C@@]43C)[C@@H]1CC[C@@H]2O        ZINC000118912393
REMARK  3 active torsions:
REMARK  status: ('A' for Active; 'I' for Inactive)
REMARK    1  A    between atoms: C_1  and  C_2
REMARK    2  A    between atoms: C_15  and  C_16
REMARK    3  A    between atoms: C_20  and  O_21
REMARK                            x       y       z     vdW  Elec       q    Type
REMARK                         _______ _______ _______ _____ _____    ______ ____
ROOT
ATOM      1  C   UNL     1       4.900   1.951 -23.077  0.00  0.00    +0.014 C 
ATOM      2  C   UNL     1       3.818   1.673 -22.412  0.00  0.00    -0.003 C 
ATOM      3  C   UNL     1       3.622   2.439 -23.444  0.00  0.00    +0.010 C 
ATOM      4  C   UNL     1       2.423   2.855 -23.728  0.00  0.00    +0.005 C 
ATOM      5  C   UNL     1       1.420   2.503 -22.979  0.00  0.00    +0.002 C 
ATOM      6  C   UNL     1       1.616   1.737 -21.947  0.00  0.00    -0.003 C 
ATOM      7  C   UNL     1       0.613   1.386 -21.198  0.00  0.00    +0.008 C 
ATOM      8  C   UNL     1      -0.586   1.801 -21.482  0.00  0.00    +0.032 C 
ATOM      9  C   UNL     1      -0.782   2.567 -22.514  0.00  0.00    -0.060 C 
ATOM     10  C   UNL     1      -1.981   2.982 -22.797  0.00  0.00    +0.046 C 
ATOM     11  C   UNL     1      -2.176   3.749 -23.828  0.00  0.00    +0.156 C 
ATOM     12  C   UNL     1      -1.173   4.100 -24.577  0.00  0.00    +0.080 C 
ATOM     13  C   UNL     1       0.025   3.685 -24.294  0.00  0.00    +0.019 C 
ATOM     14  O   UNL     1      -3.375   4.164 -24.112  0.00  0.00    -0.293 OA
ATOM     15  C   UNL     1       0.222   2.918 -23.262  0.00  0.00    -0.007 C 
ATOM     16  C   UNL     1       1.225   3.269 -24.011  0.00  0.00    +0.016 C 
ATOM     17  C   UNL     1       4.894   1.133 -21.922  0.00  0.00    +0.121 C 
ATOM     18  C   UNL     1       4.556   0.448 -20.870  0.00  0.00    +0.032 C 
ATOM     19  C   UNL     1       3.271   0.564 -20.710  0.00  0.00    +0.007 C 
ATOM     20  C   UNL     1       2.815   1.322 -21.664  0.00  0.00    +0.001 C 
ENDROOT
BRANCH  17  21
ATOM     21  O   UNL     1       6.097   1.255 -22.399  0.00  0.00    -0.391 OA
ATOM     22  H   UNL     1       6.117   1.977 -23.045  0.00  0.00    +0.210 HD
ENDBRANCH  17  21
TORSDOF 1
ENDMDL
MODEL 7
REMARK VINA RESULT:    -9.296      2.539      6.884
REMARK INTER + INTRA:          -9.568
REMARK INTER:                  -9.568
REMARK INTRA:                   0.000
REMARK UNBOUND:                 0.000
REMARK  Name = C[C@]12CC[C@H]3[C@@H](CCC4=CC(=O)CC[C@@]43C)[C@@H]1CC[C@@H]2O        ZINC000118912393
REMARK  3 active torsions:
REMARK  status: ('A' for Active; 'I' for Inactive)
REMARK    1  A    between atoms: C_1  and  C_2
REMARK    2  A    between atoms: C_15  and  C_16
REMARK    3  A    between atoms: C_20  and  O_21
REMARK                            x       y       z     vdW  Elec       q    Type
REMARK                         _______ _______ _______ _____ _____    ______ ____
ROOT
ATOM      1  C   UNL     1       5.420   1.765 -22.516  0.00  0.00    +0.014 C 
ATOM      2  C   UNL     1       4.710   2.823 -22.773  0.00  0.00    -0.003 C 
ATOM      3  C   UNL     1       4.004   1.759 -22.530  0.00  0.00    +0.010 C 
ATOM      4  C   UNL     1       2.705   1.819 -22.558  0.00  0.00    +0.005 C 
ATOM      5  C   UNL     1       2.113   2.944 -22.829  0.00  0.00    +0.002 C 
ATOM      6  C   UNL     1       2.819   4.009 -23.072  0.00  0.00    -0.003 C 
ATOM      7  C   UNL     1       2.227   5.134 -23.343  0.00  0.00    +0.008 C 
ATOM      8  C   UNL     1       0.928   5.194 -23.371  0.00  0.00    +0.032 C 
ATOM      9  C   UNL     1       0.222   4.130 -23.128  0.00  0.00    -0.060 C 
ATOM     10  C   UNL     1      -1.075   4.191 -23.156  0.00  0.00    +0.046 C 
ATOM     11  C   UNL     1      -1.781   3.126 -22.913  0.00  0.00    +0.156 C 
ATOM     12  C   UNL     1      -1.189   2.001 -22.642  0.00  0.00    +0.080 C 
ATOM     13  C   UNL     1       0.109   1.940 -22.614  0.00  0.00    +0.019 C 
ATOM     14  O   UNL     1      -3.080   3.187 -22.941  0.00  0.00    -0.293 OA
ATOM     15  C   UNL     1       0.816   3.005 -22.857  0.00  0.00    -0.007 C 
ATOM     16  C   UNL     1       1.408   1.880 -22.586  0.00  0.00    +0.016 C 
ATOM     17  C   UNL     1       5.993   3.027 -22.807  0.00  0.00    +0.121 C 
ATOM     18  C   UNL     1       6.194   4.277 -23.099  0.00  0.00    +0.032 C 
ATOM     19  C   UNL     1       5.035   4.847 -23.245  0.00  0.00    +0.007 C 
ATOM     20  C   UNL     1       4.118   3.948 -23.044  0.00  0.00    +0.001 C 
ENDROOT
BRANCH  17  21
ATOM     21  O   UNL     1       6.915   2.136 -22.588  0.00  0.00    -0.391 OA
ATOM     22  H   UNL     1       7.789   2.538 -22.712  0.00  0.00    +0.210 HD
ENDBRANCH  17  21
TORSDOF 1
ENDMDL
MODEL 8
REMARK VINA RESULT:    -9.293      2.383      3.684
REMARK INTER + INTRA:          -9.565
REMARK INTER:                  -9.565
REMARK INTRA:                   0.000
REMARK UNBOUND:                 0.000
REMARK  Name = C[C@]12CC[C@H]3[C@@H](CCC4=CC(=O)CC[C@@]43C)[C@@H]1CC[C@@H]2O        ZINC000118912393
REMARK  3 active torsions:
REMARK  status: ('A' for Active; 'I' for Inactive)
REMARK    1  A    between atoms: C_1  and  C_2
REMARK    2  A    between atoms: C_15  and  C_16
REMARK    3  A    between atoms: C_20  and  O_21
REMARK                            x       y       z     vdW  Elec       q    Type
REMARK                         _______ _______ _______ _____ _____    ______ ____
ROOT
ATOM      1  C   UNL     1      -1.400   2.093 -22.660  0.00  0.00    +0.014 C 
ATOM      2  C   UNL     1      -0.608   3.096 -22.898  0.00  0.00    -0.003 C 
ATOM      3  C   UNL     1       0.010   1.997 -22.580  0.00  0.00    +0.010 C 
ATOM      4  C   UNL     1       1.309   1.975 -22.524  0.00  0.00    +0.005 C 
ATOM      5  C   UNL     1       1.989   3.051 -22.786  0.00  0.00    +0.002 C 
ATOM      6  C   UNL     1       1.371   4.150 -23.103  0.00  0.00    -0.003 C 
ATOM      7  C   UNL     1       2.051   5.227 -23.364  0.00  0.00    +0.008 C 
ATOM      8  C   UNL     1       3.350   5.204 -23.308  0.00  0.00    +0.032 C 
ATOM      9  C   UNL     1       3.968   4.106 -22.991  0.00  0.00    -0.060 C 
ATOM     10  C   UNL     1       5.266   4.084 -22.935  0.00  0.00    +0.046 C 
ATOM     11  C   UNL     1       5.884   2.986 -22.617  0.00  0.00    +0.156 C 
ATOM     12  C   UNL     1       5.204   1.909 -22.356  0.00  0.00    +0.080 C 
ATOM     13  C   UNL     1       3.906   1.931 -22.412  0.00  0.00    +0.019 C 
ATOM     14  O   UNL     1       7.183   2.963 -22.561  0.00  0.00    -0.293 OA
ATOM     15  C   UNL     1       3.287   3.030 -22.730  0.00  0.00    -0.007 C 
ATOM     16  C   UNL     1       2.607   1.953 -22.468  0.00  0.00    +0.016 C 
ATOM     17  C   UNL     1      -1.871   3.378 -23.022  0.00  0.00    +0.121 C 
ATOM     18  C   UNL     1      -1.971   4.630 -23.360  0.00  0.00    +0.032 C 
ATOM     19  C   UNL     1      -0.771   5.120 -23.445  0.00  0.00    +0.007 C 
ATOM     20  C   UNL     1       0.072   4.172 -23.159  0.00  0.00    +0.001 C 
ENDROOT
BRANCH  17  21
ATOM     21  O   UNL     1      -2.861   2.555 -22.840  0.00  0.00    -0.391 OA
ATOM     22  H   UNL     1      -2.516   1.656 -22.723  0.00  0.00    +0.210 HD
ENDBRANCH  17  21
TORSDOF 1
ENDMDL
