MODEL 1
REMARK VINA RESULT:    -8.617      0.000      0.000
REMARK INTER + INTRA:         -11.404
REMARK INTER:                 -11.930
REMARK INTRA:                   0.526
REMARK UNBOUND:                -0.017
REMARK  Name = ZINC000000338225
REMARK  10 active torsions:
REMARK  status: ('A' for Active; 'I' for Inactive)
REMARK    1  A    between atoms: C_1  and  O_2
REMARK    2  A    between atoms: O_2  and  C_3
REMARK    3  A    between atoms: C_6  and  C_7
REMARK    4  A    between atoms: C_7  and  C_8
REMARK    5  A    between atoms: C_11  and  O_12
REMARK    6  A    between atoms: O_12  and  C_13
REMARK    7  A    between atoms: C_14  and  O_15
REMARK    8  A    between atoms: O_15  and  C_16
REMARK    9  A    between atoms: N_21  and  C_22
REMARK   10  A    between atoms: C_24  and  O_25
REMARK                            x       y       z     vdW  Elec       q    Type
REMARK                         _______ _______ _______ _____ _____    ______ ____
ROOT
ATOM      1  C   UNL     1       0.325   2.240 -23.111  0.00  0.00    +0.100 C 
ATOM      2  C   UNL     1      -0.905   2.607 -23.314  0.00  0.00    +0.008 A 
ATOM      3  C   UNL     1      -1.230   3.203 -24.423  0.00  0.00    +0.058 A 
ATOM      4  C   UNL     1      -2.461   3.570 -24.626  0.00  0.00    +0.162 A 
ATOM      5  C   UNL     1      -3.365   3.342 -23.720  0.00  0.00    +0.162 A 
ATOM      6  C   UNL     1      -3.040   2.747 -22.612  0.00  0.00    +0.053 A 
ATOM      7  C   UNL     1      -1.809   2.379 -22.409  0.00  0.00    -0.030 A 
ATOM      8  C   UNL     1      -1.483   1.783 -21.300  0.00  0.00    +0.086 C 
ATOM      9  C   UNL     1      -0.253   1.416 -21.097  0.00  0.00    +0.136 C 
ATOM     10  N   UNL     1       0.651   1.644 -22.003  0.00  0.00    +0.239 N 
ATOM     11  H   UNL     1       1.619   1.580 -22.319  0.00  0.00    +0.204 HD
ATOM     12  C   UNL     1       1.882   1.276 -21.800  0.00  0.00    +0.191 C 
ENDROOT
BRANCH   5  13
ATOM     13  O   UNL     1      -4.595   3.709 -23.923  0.00  0.00    -0.491 OA
ATOM     14  C   UNL     1      -5.464   3.634 -22.959  0.00  0.00    +0.277 C 
ENDBRANCH   5  13
BRANCH   4  15
ATOM     15  O   UNL     1      -2.787   4.166 -25.734  0.00  0.00    -0.491 OA
ATOM     16  C   UNL     1      -3.031   3.465 -26.802  0.00  0.00    +0.277 C 
ENDBRANCH   4  15
BRANCH   1  17
ATOM     17  C   UNL     1       1.230   2.468 -24.017  0.00  0.00    +0.094 C 
BRANCH  17  21
ATOM     18  C   UNL     1       4.337   4.663 -23.160  0.00  0.00    +0.161 A 
ATOM     19  C   UNL     1       4.499   3.445 -23.584  0.00  0.00    +0.049 A 
ATOM     20  C   UNL     1       3.464   2.713 -23.869  0.00  0.00    +0.007 A 
ATOM     21  C   UNL     1       2.265   3.200 -23.732  0.00  0.00    -0.038 A 
ATOM     22  C   UNL     1       2.104   4.418 -23.308  0.00  0.00    +0.053 A 
ATOM     23  C   UNL     1       3.140   5.150 -23.022  0.00  0.00    +0.159 A 
BRANCH  18  25
ATOM     24  C   UNL     1       6.569   4.965 -23.147  0.00  0.00    +0.277 C 
ATOM     25  O   UNL     1       5.373   5.395 -22.875  0.00  0.00    -0.491 OA
ENDBRANCH  18  25
BRANCH  23  26
ATOM     26  O   UNL     1       2.978   6.368 -22.599  0.00  0.00    -0.503 OA
ATOM     27  H   UNL     1       3.670   6.800 -22.138  0.00  0.00    +0.292 HD
ENDBRANCH  23  26
ENDBRANCH  17  21
ENDBRANCH   1  17
TORSDOF 6
ENDMDL
MODEL 2
REMARK VINA RESULT:    -8.454      2.242      3.783
REMARK INTER + INTRA:         -11.189
REMARK INTER:                 -11.425
REMARK INTRA:                   0.236
REMARK UNBOUND:                -0.017
REMARK  Name = ZINC000000338225
REMARK  10 active torsions:
REMARK  status: ('A' for Active; 'I' for Inactive)
REMARK    1  A    between atoms: C_1  and  O_2
REMARK    2  A    between atoms: O_2  and  C_3
REMARK    3  A    between atoms: C_6  and  C_7
REMARK    4  A    between atoms: C_7  and  C_8
REMARK    5  A    between atoms: C_11  and  O_12
REMARK    6  A    between atoms: O_12  and  C_13
REMARK    7  A    between atoms: C_14  and  O_15
REMARK    8  A    between atoms: O_15  and  C_16
REMARK    9  A    between atoms: N_21  and  C_22
REMARK   10  A    between atoms: C_24  and  O_25
REMARK                            x       y       z     vdW  Elec       q    Type
REMARK                         _______ _______ _______ _____ _____    ______ ____
ROOT
ATOM      1  C   UNL     1      -0.940   3.913 -24.062  0.00  0.00    +0.100 C 
ATOM      2  C   UNL     1      -2.147   3.844 -23.585  0.00  0.00    +0.008 A 
ATOM      3  C   UNL     1      -2.357   4.044 -22.318  0.00  0.00    +0.058 A 
ATOM      4  C   UNL     1      -3.564   3.975 -21.839  0.00  0.00    +0.162 A 
ATOM      5  C   UNL     1      -4.561   3.706 -22.629  0.00  0.00    +0.162 A 
ATOM      6  C   UNL     1      -4.351   3.506 -23.896  0.00  0.00    +0.053 A 
ATOM      7  C   UNL     1      -3.144   3.575 -24.374  0.00  0.00    -0.030 A 
ATOM      8  C   UNL     1      -2.934   3.375 -25.641  0.00  0.00    +0.086 C 
ATOM      9  C   UNL     1      -1.728   3.444 -26.119  0.00  0.00    +0.136 C 
ATOM     10  N   UNL     1      -0.731   3.713 -25.329  0.00  0.00    +0.239 N 
ATOM     11  H   UNL     1       0.269   3.866 -25.191  0.00  0.00    +0.204 HD
ATOM     12  C   UNL     1       0.477   3.783 -25.808  0.00  0.00    +0.191 C 
ENDROOT
BRANCH   5  13
ATOM     13  O   UNL     1      -5.768   3.637 -22.151  0.00  0.00    -0.491 OA
ATOM     14  C   UNL     1      -6.241   2.497 -21.743  0.00  0.00    +0.277 C 
ENDBRANCH   5  13
BRANCH   4  15
ATOM     15  O   UNL     1      -3.773   4.175 -20.572  0.00  0.00    -0.491 OA
ATOM     16  C   UNL     1      -3.013   3.599 -19.688  0.00  0.00    +0.277 C 
ENDBRANCH   4  15
BRANCH   1  17
ATOM     17  C   UNL     1       0.057   4.182 -23.273  0.00  0.00    +0.094 C 
BRANCH  17  21
ATOM     18  C   UNL     1       2.598   1.383 -22.318  0.00  0.00    +0.161 A 
ATOM     19  C   UNL     1       1.327   1.202 -22.117  0.00  0.00    +0.049 A 
ATOM     20  C   UNL     1       0.480   2.135 -22.436  0.00  0.00    +0.007 A 
ATOM     21  C   UNL     1       0.904   3.250 -22.955  0.00  0.00    -0.038 A 
ATOM     22  C   UNL     1       2.176   3.429 -23.155  0.00  0.00    +0.053 A 
ATOM     23  C   UNL     1       3.023   2.496 -22.837  0.00  0.00    +0.159 A 
BRANCH  18  25
ATOM     24  C   UNL     1       3.857   0.335 -20.772  0.00  0.00    +0.277 C 
ATOM     25  O   UNL     1       3.446   0.450 -22.000  0.00  0.00    -0.491 OA
ENDBRANCH  18  25
BRANCH  23  26
ATOM     26  O   UNL     1       4.295   2.677 -23.037  0.00  0.00    -0.503 OA
ATOM     27  H   UNL     1       4.605   2.927 -23.886  0.00  0.00    +0.292 HD
ENDBRANCH  23  26
ENDBRANCH  17  21
ENDBRANCH   1  17
TORSDOF 6
ENDMDL
MODEL 3
REMARK VINA RESULT:    -8.000      1.649      2.931
REMARK INTER + INTRA:         -10.588
REMARK INTER:                 -11.282
REMARK INTRA:                   0.694
REMARK UNBOUND:                -0.017
REMARK  Name = ZINC000000338225
REMARK  10 active torsions:
REMARK  status: ('A' for Active; 'I' for Inactive)
REMARK    1  A    between atoms: C_1  and  O_2
REMARK    2  A    between atoms: O_2  and  C_3
REMARK    3  A    between atoms: C_6  and  C_7
REMARK    4  A    between atoms: C_7  and  C_8
REMARK    5  A    between atoms: C_11  and  O_12
REMARK    6  A    between atoms: O_12  and  C_13
REMARK    7  A    between atoms: C_14  and  O_15
REMARK    8  A    between atoms: O_15  and  C_16
REMARK    9  A    between atoms: N_21  and  C_22
REMARK   10  A    between atoms: C_24  and  O_25
REMARK                            x       y       z     vdW  Elec       q    Type
REMARK                         _______ _______ _______ _____ _____    ______ ____
ROOT
ATOM      1  C   UNL     1      -0.672   2.868 -24.041  0.00  0.00    +0.100 C 
ATOM      2  C   UNL     1      -1.841   3.085 -23.517  0.00  0.00    +0.008 A 
ATOM      3  C   UNL     1      -2.032   2.884 -22.247  0.00  0.00    +0.058 A 
ATOM      4  C   UNL     1      -3.202   3.102 -21.723  0.00  0.00    +0.162 A 
ATOM      5  C   UNL     1      -4.181   3.520 -22.470  0.00  0.00    +0.162 A 
ATOM      6  C   UNL     1      -3.990   3.720 -23.740  0.00  0.00    +0.053 A 
ATOM      7  C   UNL     1      -2.820   3.503 -24.264  0.00  0.00    -0.030 A 
ATOM      8  C   UNL     1      -2.629   3.704 -25.534  0.00  0.00    +0.086 C 
ATOM      9  C   UNL     1      -1.460   3.486 -26.057  0.00  0.00    +0.136 C 
ATOM     10  N   UNL     1      -0.481   3.068 -25.311  0.00  0.00    +0.239 N 
ATOM     11  H   UNL     1       0.493   2.781 -25.212  0.00  0.00    +0.204 HD
ATOM     12  C   UNL     1       0.689   2.851 -25.835  0.00  0.00    +0.191 C 
ENDROOT
BRANCH   5  13
ATOM     13  O   UNL     1      -5.351   3.737 -21.946  0.00  0.00    -0.491 OA
ATOM     14  C   UNL     1      -6.346   2.951 -22.230  0.00  0.00    +0.277 C 
ENDBRANCH   5  13
BRANCH   4  15
ATOM     15  O   UNL     1      -3.393   2.901 -20.453  0.00  0.00    -0.491 OA
ATOM     16  C   UNL     1      -3.029   3.803 -19.590  0.00  0.00    +0.277 C 
ENDBRANCH   4  15
BRANCH   1  17
ATOM     17  C   UNL     1       0.307   2.450 -23.294  0.00  0.00    +0.094 C 
BRANCH  17  21
ATOM     18  C   UNL     1       3.554   4.584 -22.960  0.00  0.00    +0.161 A 
ATOM     19  C   UNL     1       3.608   3.292 -22.824  0.00  0.00    +0.049 A 
ATOM     20  C   UNL     1       2.526   2.580 -22.936  0.00  0.00    +0.007 A 
ATOM     21  C   UNL     1       1.389   3.161 -23.183  0.00  0.00    -0.038 A 
ATOM     22  C   UNL     1       1.335   4.453 -23.318  0.00  0.00    +0.053 A 
ATOM     23  C   UNL     1       2.417   5.164 -23.206  0.00  0.00    +0.159 A 
BRANCH  18  25
ATOM     24  C   UNL     1       5.797   4.712 -22.812  0.00  0.00    +0.277 C 
ATOM     25  O   UNL     1       4.636   5.295 -22.848  0.00  0.00    -0.491 OA
ENDBRANCH  18  25
BRANCH  23  26
ATOM     26  O   UNL     1       2.363   6.456 -23.342  0.00  0.00    -0.503 OA
ATOM     27  H   UNL     1       3.125   6.977 -23.180  0.00  0.00    +0.292 HD
ENDBRANCH  23  26
ENDBRANCH  17  21
ENDBRANCH   1  17
TORSDOF 6
ENDMDL
MODEL 4
REMARK VINA RESULT:    -7.217      2.161      7.150
REMARK INTER + INTRA:          -9.554
REMARK INTER:                 -10.791
REMARK INTRA:                   1.237
REMARK UNBOUND:                -0.017
REMARK  Name = ZINC000000338225
REMARK  10 active torsions:
REMARK  status: ('A' for Active; 'I' for Inactive)
REMARK    1  A    between atoms: C_1  and  O_2
REMARK    2  A    between atoms: O_2  and  C_3
REMARK    3  A    between atoms: C_6  and  C_7
REMARK    4  A    between atoms: C_7  and  C_8
REMARK    5  A    between atoms: C_11  and  O_12
REMARK    6  A    between atoms: O_12  and  C_13
REMARK    7  A    between atoms: C_14  and  O_15
REMARK    8  A    between atoms: O_15  and  C_16
REMARK    9  A    between atoms: N_21  and  C_22
REMARK   10  A    between atoms: C_24  and  O_25
REMARK                            x       y       z     vdW  Elec       q    Type
REMARK                         _______ _______ _______ _____ _____    ______ ____
ROOT
ATOM      1  C   UNL     1       0.633   2.826 -23.599  0.00  0.00    +0.100 C 
ATOM      2  C   UNL     1       1.752   2.762 -22.941  0.00  0.00    +0.008 A 
ATOM      3  C   UNL     1       1.917   1.854 -22.026  0.00  0.00    +0.058 A 
ATOM      4  C   UNL     1       3.037   1.790 -21.368  0.00  0.00    +0.162 A 
ATOM      5  C   UNL     1       3.991   2.633 -21.627  0.00  0.00    +0.162 A 
ATOM      6  C   UNL     1       3.827   3.541 -22.542  0.00  0.00    +0.053 A 
ATOM      7  C   UNL     1       2.707   3.605 -23.200  0.00  0.00    -0.030 A 
ATOM      8  C   UNL     1       2.542   4.513 -24.116  0.00  0.00    +0.086 C 
ATOM      9  C   UNL     1       1.423   4.577 -24.773  0.00  0.00    +0.136 C 
ATOM     10  N   UNL     1       0.468   3.733 -24.514  0.00  0.00    +0.239 N 
ATOM     11  H   UNL     1      -0.473   3.382 -24.697  0.00  0.00    +0.204 HD
ATOM     12  C   UNL     1      -0.652   3.798 -25.172  0.00  0.00    +0.191 C 
ENDROOT
BRANCH   5  13
ATOM     13  O   UNL     1       5.111   2.569 -20.969  0.00  0.00    -0.491 OA
ATOM     14  C   UNL     1       6.148   3.232 -21.387  0.00  0.00    +0.277 C 
ENDBRANCH   5  13
BRANCH   4  15
ATOM     15  O   UNL     1       3.202   0.882 -20.452  0.00  0.00    -0.491 OA
ATOM     16  C   UNL     1       4.152   0.003 -20.572  0.00  0.00    +0.277 C 
ENDBRANCH   4  15
BRANCH   1  17
ATOM     17  C   UNL     1      -0.322   1.982 -23.340  0.00  0.00    +0.094 C 
BRANCH  17  21
ATOM     18  C   UNL     1      -3.739   3.265 -21.967  0.00  0.00    +0.161 A 
ATOM     19  C   UNL     1      -3.645   2.857 -23.198  0.00  0.00    +0.049 A 
ATOM     20  C   UNL     1      -2.507   2.429 -23.656  0.00  0.00    +0.007 A 
ATOM     21  C   UNL     1      -1.461   2.410 -22.882  0.00  0.00    -0.038 A 
ATOM     22  C   UNL     1      -1.556   2.818 -21.652  0.00  0.00    +0.053 A 
ATOM     23  C   UNL     1      -2.695   3.246 -21.194  0.00  0.00    +0.159 A 
BRANCH  18  25
ATOM     24  C   UNL     1      -5.986   3.352 -22.099  0.00  0.00    +0.277 C 
ATOM     25  O   UNL     1      -4.878   3.692 -21.510  0.00  0.00    -0.491 OA
ENDBRANCH  18  25
BRANCH  23  26
ATOM     26  O   UNL     1      -2.789   3.654 -19.964  0.00  0.00    -0.503 OA
ATOM     27  H   UNL     1      -2.368   3.174 -19.277  0.00  0.00    +0.292 HD
ENDBRANCH  23  26
ENDBRANCH  17  21
ENDBRANCH   1  17
TORSDOF 6
ENDMDL
MODEL 5
REMARK VINA RESULT:    -7.134      2.250      3.465
REMARK INTER + INTRA:          -9.445
REMARK INTER:                  -9.990
REMARK INTRA:                   0.546
REMARK UNBOUND:                -0.017
REMARK  Name = ZINC000000338225
REMARK  10 active torsions:
REMARK  status: ('A' for Active; 'I' for Inactive)
REMARK    1  A    between atoms: C_1  and  O_2
REMARK    2  A    between atoms: O_2  and  C_3
REMARK    3  A    between atoms: C_6  and  C_7
REMARK    4  A    between atoms: C_7  and  C_8
REMARK    5  A    between atoms: C_11  and  O_12
REMARK    6  A    between atoms: O_12  and  C_13
REMARK    7  A    between atoms: C_14  and  O_15
REMARK    8  A    between atoms: O_15  and  C_16
REMARK    9  A    between atoms: N_21  and  C_22
REMARK   10  A    between atoms: C_24  and  O_25
REMARK                            x       y       z     vdW  Elec       q    Type
REMARK                         _______ _______ _______ _____ _____    ______ ____
ROOT
ATOM      1  C   UNL     1       1.668   2.044 -23.610  0.00  0.00    +0.100 C 
ATOM      2  C   UNL     1       0.576   2.740 -23.716  0.00  0.00    +0.008 A 
ATOM      3  C   UNL     1      -0.105   3.047 -22.652  0.00  0.00    +0.058 A 
ATOM      4  C   UNL     1      -1.198   3.743 -22.757  0.00  0.00    +0.162 A 
ATOM      5  C   UNL     1      -1.610   4.132 -23.927  0.00  0.00    +0.162 A 
ATOM      6  C   UNL     1      -0.930   3.825 -24.991  0.00  0.00    +0.053 A 
ATOM      7  C   UNL     1       0.163   3.129 -24.886  0.00  0.00    -0.030 A 
ATOM      8  C   UNL     1       0.844   2.822 -25.950  0.00  0.00    +0.086 C 
ATOM      9  C   UNL     1       1.936   2.127 -25.845  0.00  0.00    +0.136 C 
ATOM     10  N   UNL     1       2.348   1.738 -24.675  0.00  0.00    +0.239 N 
ATOM     11  H   UNL     1       3.032   1.245 -24.099  0.00  0.00    +0.204 HD
ATOM     12  C   UNL     1       3.442   1.041 -24.570  0.00  0.00    +0.191 C 
ENDROOT
BRANCH   5  13
ATOM     13  O   UNL     1      -2.703   4.828 -24.032  0.00  0.00    -0.491 OA
ATOM     14  C   UNL     1      -3.668   4.410 -24.796  0.00  0.00    +0.277 C 
ENDBRANCH   5  13
BRANCH   4  15
ATOM     15  O   UNL     1      -1.878   4.050 -21.693  0.00  0.00    -0.491 OA
ATOM     16  C   UNL     1      -2.508   3.122 -21.034  0.00  0.00    +0.277 C 
ENDBRANCH   4  15
BRANCH   1  17
ATOM     17  C   UNL     1       2.081   1.655 -22.441  0.00  0.00    +0.094 C 
BRANCH  17  21
ATOM     18  C   UNL     1       5.538   2.856 -21.093  0.00  0.00    +0.161 A 
ATOM     19  C   UNL     1       4.891   3.579 -21.959  0.00  0.00    +0.049 A 
ATOM     20  C   UNL     1       3.739   3.179 -22.408  0.00  0.00    +0.007 A 
ATOM     21  C   UNL     1       3.233   2.055 -21.991  0.00  0.00    -0.038 A 
ATOM     22  C   UNL     1       3.880   1.333 -21.126  0.00  0.00    +0.053 A 
ATOM     23  C   UNL     1       5.032   1.734 -20.677  0.00  0.00    +0.159 A 
BRANCH  18  25
ATOM     24  C   UNL     1       7.265   4.299 -21.165  0.00  0.00    +0.277 C 
ATOM     25  O   UNL     1       6.690   3.256 -20.644  0.00  0.00    -0.491 OA
ENDBRANCH  18  25
BRANCH  23  26
ATOM     26  O   UNL     1       5.679   1.011 -19.811  0.00  0.00    -0.503 OA
ATOM     27  H   UNL     1       6.112   0.226 -20.086  0.00  0.00    +0.292 HD
ENDBRANCH  23  26
ENDBRANCH  17  21
ENDBRANCH   1  17
TORSDOF 6
ENDMDL
MODEL 6
REMARK VINA RESULT:    -7.040      2.329      7.271
REMARK INTER + INTRA:          -9.320
REMARK INTER:                  -9.440
REMARK INTRA:                   0.119
REMARK UNBOUND:                -0.017
REMARK  Name = ZINC000000338225
REMARK  10 active torsions:
REMARK  status: ('A' for Active; 'I' for Inactive)
REMARK    1  A    between atoms: C_1  and  O_2
REMARK    2  A    between atoms: O_2  and  C_3
REMARK    3  A    between atoms: C_6  and  C_7
REMARK    4  A    between atoms: C_7  and  C_8
REMARK    5  A    between atoms: C_11  and  O_12
REMARK    6  A    between atoms: O_12  and  C_13
REMARK    7  A    between atoms: C_14  and  O_15
REMARK    8  A    between atoms: O_15  and  C_16
REMARK    9  A    between atoms: N_21  and  C_22
REMARK   10  A    between atoms: C_24  and  O_25
REMARK                            x       y       z     vdW  Elec       q    Type
REMARK                         _______ _______ _______ _____ _____    ______ ____
ROOT
ATOM      1  C   UNL     1       4.069   2.200 -22.960  0.00  0.00    +0.100 C 
ATOM      2  C   UNL     1       5.014   2.900 -22.408  0.00  0.00    +0.008 A 
ATOM      3  C   UNL     1       5.445   3.981 -22.987  0.00  0.00    +0.058 A 
ATOM      4  C   UNL     1       6.391   4.682 -22.434  0.00  0.00    +0.162 A 
ATOM      5  C   UNL     1       6.905   4.301 -21.302  0.00  0.00    +0.162 A 
ATOM      6  C   UNL     1       6.474   3.220 -20.723  0.00  0.00    +0.053 A 
ATOM      7  C   UNL     1       5.529   2.519 -21.276  0.00  0.00    -0.030 A 
ATOM      8  C   UNL     1       5.098   1.438 -20.697  0.00  0.00    +0.086 C 
ATOM      9  C   UNL     1       4.153   0.738 -21.250  0.00  0.00    +0.136 C 
ATOM     10  N   UNL     1       3.638   1.119 -22.381  0.00  0.00    +0.239 N 
ATOM     11  H   UNL     1       2.976   0.972 -23.143  0.00  0.00    +0.204 HD
ATOM     12  C   UNL     1       2.692   0.417 -22.934  0.00  0.00    +0.191 C 
ENDROOT
BRANCH   5  13
ATOM     13  O   UNL     1       7.850   5.002 -20.750  0.00  0.00    -0.491 OA
ATOM     14  C   UNL     1       7.584   5.763 -19.731  0.00  0.00    +0.277 C 
ENDBRANCH   5  13
BRANCH   4  15
ATOM     15  O   UNL     1       6.821   5.763 -23.013  0.00  0.00    -0.491 OA
ATOM     16  C   UNL     1       7.811   5.700 -23.855  0.00  0.00    +0.277 C 
ENDBRANCH   4  15
BRANCH   1  17
ATOM     17  C   UNL     1       3.555   2.580 -24.092  0.00  0.00    +0.094 C 
BRANCH  17  21
ATOM     18  C   UNL     1       0.043   4.274 -24.165  0.00  0.00    +0.161 A 
ATOM     19  C   UNL     1       0.871   4.537 -23.198  0.00  0.00    +0.049 A 
ATOM     20  C   UNL     1       2.041   3.972 -23.173  0.00  0.00    +0.007 A 
ATOM     21  C   UNL     1       2.384   3.145 -24.116  0.00  0.00    -0.038 A 
ATOM     22  C   UNL     1       1.556   2.883 -25.083  0.00  0.00    +0.053 A 
ATOM     23  C   UNL     1       0.385   3.448 -25.108  0.00  0.00    +0.159 A 
BRANCH  18  25
ATOM     24  C   UNL     1      -2.057   4.447 -23.369  0.00  0.00    +0.277 C 
ATOM     25  O   UNL     1      -1.128   4.839 -24.190  0.00  0.00    -0.491 OA
ENDBRANCH  18  25
BRANCH  23  26
ATOM     26  O   UNL     1      -0.443   3.185 -26.075  0.00  0.00    -0.503 OA
ATOM     27  H   UNL     1      -0.234   2.522 -26.704  0.00  0.00    +0.292 HD
ENDBRANCH  23  26
ENDBRANCH  17  21
ENDBRANCH   1  17
TORSDOF 6
ENDMDL
MODEL 7
REMARK VINA RESULT:    -6.921      2.202      7.101
REMARK INTER + INTRA:          -9.163
REMARK INTER:                  -9.810
REMARK INTRA:                   0.647
REMARK UNBOUND:                -0.017
REMARK  Name = ZINC000000338225
REMARK  10 active torsions:
REMARK  status: ('A' for Active; 'I' for Inactive)
REMARK    1  A    between atoms: C_1  and  O_2
REMARK    2  A    between atoms: O_2  and  C_3
REMARK    3  A    between atoms: C_6  and  C_7
REMARK    4  A    between atoms: C_7  and  C_8
REMARK    5  A    between atoms: C_11  and  O_12
REMARK    6  A    between atoms: O_12  and  C_13
REMARK    7  A    between atoms: C_14  and  O_15
REMARK    8  A    between atoms: O_15  and  C_16
REMARK    9  A    between atoms: N_21  and  C_22
REMARK   10  A    between atoms: C_24  and  O_25
REMARK                            x       y       z     vdW  Elec       q    Type
REMARK                         _______ _______ _______ _____ _____    ______ ____
ROOT
ATOM      1  C   UNL     1       2.523   3.972 -24.027  0.00  0.00    +0.100 C 
ATOM      2  C   UNL     1       3.445   4.606 -23.366  0.00  0.00    +0.008 A 
ATOM      3  C   UNL     1       3.189   5.773 -22.852  0.00  0.00    +0.058 A 
ATOM      4  C   UNL     1       4.111   6.408 -22.191  0.00  0.00    +0.162 A 
ATOM      5  C   UNL     1       5.288   5.877 -22.043  0.00  0.00    +0.162 A 
ATOM      6  C   UNL     1       5.544   4.710 -22.557  0.00  0.00    +0.053 A 
ATOM      7  C   UNL     1       4.622   4.075 -23.219  0.00  0.00    -0.030 A 
ATOM      8  C   UNL     1       4.877   2.909 -23.733  0.00  0.00    +0.086 C 
ATOM      9  C   UNL     1       3.956   2.274 -24.394  0.00  0.00    +0.136 C 
ATOM     10  N   UNL     1       2.779   2.806 -24.541  0.00  0.00    +0.239 N 
ATOM     11  H   UNL     1       1.828   2.757 -24.908  0.00  0.00    +0.204 HD
ATOM     12  C   UNL     1       1.857   2.170 -25.203  0.00  0.00    +0.191 C 
ENDROOT
BRANCH   5  13
ATOM     13  O   UNL     1       6.209   6.511 -21.382  0.00  0.00    -0.491 OA
ATOM     14  C   UNL     1       7.364   6.741 -21.934  0.00  0.00    +0.277 C 
ENDBRANCH   5  13
BRANCH   4  15
ATOM     15  O   UNL     1       3.855   7.574 -21.677  0.00  0.00    -0.491 OA
ATOM     16  C   UNL     1       4.173   8.655 -22.327  0.00  0.00    +0.277 C 
ENDBRANCH   4  15
BRANCH   1  17
ATOM     17  C   UNL     1       1.346   4.503 -24.174  0.00  0.00    +0.094 C 
BRANCH  17  21
ATOM     18  C   UNL     1      -1.584   3.434 -21.833  0.00  0.00    +0.161 A 
ATOM     19  C   UNL     1      -1.628   4.579 -22.448  0.00  0.00    +0.049 A 
ATOM     20  C   UNL     1      -0.651   4.935 -23.228  0.00  0.00    +0.007 A 
ATOM     21  C   UNL     1       0.370   4.147 -23.394  0.00  0.00    -0.038 A 
ATOM     22  C   UNL     1       0.413   3.003 -22.779  0.00  0.00    +0.053 A 
ATOM     23  C   UNL     1      -0.564   2.646 -21.998  0.00  0.00    +0.159 A 
BRANCH  18  25
ATOM     24  C   UNL     1      -3.719   2.773 -21.557  0.00  0.00    +0.277 C 
ATOM     25  O   UNL     1      -2.560   3.078 -21.052  0.00  0.00    -0.491 OA
ENDBRANCH  18  25
BRANCH  23  26
ATOM     26  O   UNL     1      -0.520   1.502 -21.383  0.00  0.00    -0.503 OA
ATOM     27  H   UNL     1       0.162   1.328 -20.764  0.00  0.00    +0.292 HD
ENDBRANCH  23  26
ENDBRANCH  17  21
ENDBRANCH   1  17
TORSDOF 6
ENDMDL
MODEL 8
REMARK VINA RESULT:    -6.904      2.333      4.080
REMARK INTER + INTRA:          -9.140
REMARK INTER:                 -10.014
REMARK INTRA:                   0.874
REMARK UNBOUND:                -0.017
REMARK  Name = ZINC000000338225
REMARK  10 active torsions:
REMARK  status: ('A' for Active; 'I' for Inactive)
REMARK    1  A    between atoms: C_1  and  O_2
REMARK    2  A    between atoms: O_2  and  C_3
REMARK    3  A    between atoms: C_6  and  C_7
REMARK    4  A    between atoms: C_7  and  C_8
REMARK    5  A    between atoms: C_11  and  O_12
REMARK    6  A    between atoms: O_12  and  C_13
REMARK    7  A    between atoms: C_14  and  O_15
REMARK    8  A    between atoms: O_15  and  C_16
REMARK    9  A    between atoms: N_21  and  C_22
REMARK   10  A    between atoms: C_24  and  O_25
REMARK                            x       y       z     vdW  Elec       q    Type
REMARK                         _______ _______ _______ _____ _____    ______ ____
ROOT
ATOM      1  C   UNL     1      -2.359   3.192 -25.154  0.00  0.00    +0.100 C 
ATOM      2  C   UNL     1      -2.649   3.067 -23.893  0.00  0.00    +0.008 A 
ATOM      3  C   UNL     1      -1.764   2.596 -23.066  0.00  0.00    +0.058 A 
ATOM      4  C   UNL     1      -2.053   2.471 -21.805  0.00  0.00    +0.162 A 
ATOM      5  C   UNL     1      -3.229   2.817 -21.370  0.00  0.00    +0.162 A 
ATOM      6  C   UNL     1      -4.114   3.288 -22.197  0.00  0.00    +0.053 A 
ATOM      7  C   UNL     1      -3.825   3.413 -23.459  0.00  0.00    -0.030 A 
ATOM      8  C   UNL     1      -4.710   3.885 -24.285  0.00  0.00    +0.086 C 
ATOM      9  C   UNL     1      -4.420   4.010 -25.546  0.00  0.00    +0.136 C 
ATOM     10  N   UNL     1      -3.245   3.663 -25.980  0.00  0.00    +0.239 N 
ATOM     11  H   UNL     1      -2.583   3.564 -26.750  0.00  0.00    +0.204 HD
ATOM     12  C   UNL     1      -2.955   3.788 -27.242  0.00  0.00    +0.191 C 
ENDROOT
BRANCH   5  13
ATOM     13  O   UNL     1      -3.519   2.692 -20.110  0.00  0.00    -0.491 OA
ATOM     14  C   UNL     1      -3.345   3.694 -19.300  0.00  0.00    +0.277 C 
ENDBRANCH   5  13
BRANCH   4  15
ATOM     15  O   UNL     1      -1.168   1.999 -20.978  0.00  0.00    -0.491 OA
ATOM     16  C   UNL     1      -0.053   1.506 -21.431  0.00  0.00    +0.277 C 
ENDBRANCH   4  15
BRANCH   1  17
ATOM     17  C   UNL     1      -1.184   2.846 -25.588  0.00  0.00    +0.094 C 
BRANCH  17  21
ATOM     18  C   UNL     1       2.021   4.323 -23.928  0.00  0.00    +0.161 A 
ATOM     19  C   UNL     1       0.926   5.023 -23.965  0.00  0.00    +0.049 A 
ATOM     20  C   UNL     1      -0.142   4.531 -24.518  0.00  0.00    +0.007 A 
ATOM     21  C   UNL     1      -0.116   3.338 -25.035  0.00  0.00    -0.038 A 
ATOM     22  C   UNL     1       0.979   2.638 -24.997  0.00  0.00    +0.053 A 
ATOM     23  C   UNL     1       2.047   3.130 -24.444  0.00  0.00    +0.159 A 
BRANCH  18  25
ATOM     24  C   UNL     1       3.058   5.999 -22.840  0.00  0.00    +0.277 C 
ATOM     25  O   UNL     1       3.089   4.815 -23.375  0.00  0.00    -0.491 OA
ENDBRANCH  18  25
BRANCH  23  26
ATOM     26  O   UNL     1       3.142   2.430 -24.406  0.00  0.00    -0.503 OA
ATOM     27  H   UNL     1       3.700   2.392 -25.158  0.00  0.00    +0.292 HD
ENDBRANCH  23  26
ENDBRANCH  17  21
ENDBRANCH   1  17
TORSDOF 6
ENDMDL
MODEL 9
REMARK VINA RESULT:    -5.960      1.971      3.257
REMARK INTER + INTRA:          -7.893
REMARK INTER:                  -7.876
REMARK INTRA:                  -0.017
REMARK UNBOUND:                -0.017
REMARK  Name = ZINC000000338225
REMARK  10 active torsions:
REMARK  status: ('A' for Active; 'I' for Inactive)
REMARK    1  A    between atoms: C_1  and  O_2
REMARK    2  A    between atoms: O_2  and  C_3
REMARK    3  A    between atoms: C_6  and  C_7
REMARK    4  A    between atoms: C_7  and  C_8
REMARK    5  A    between atoms: C_11  and  O_12
REMARK    6  A    between atoms: O_12  and  C_13
REMARK    7  A    between atoms: C_14  and  O_15
REMARK    8  A    between atoms: O_15  and  C_16
REMARK    9  A    between atoms: N_21  and  C_22
REMARK   10  A    between atoms: C_24  and  O_25
REMARK                            x       y       z     vdW  Elec       q    Type
REMARK                         _______ _______ _______ _____ _____    ______ ____
ROOT
ATOM      1  C   UNL     1       0.510   3.001 -24.511  0.00  0.00    +0.100 C 
ATOM      2  C   UNL     1      -0.299   2.796 -23.514  0.00  0.00    +0.008 A 
ATOM      3  C   UNL     1       0.124   2.177 -22.452  0.00  0.00    +0.058 A 
ATOM      4  C   UNL     1      -0.685   1.972 -21.454  0.00  0.00    +0.162 A 
ATOM      5  C   UNL     1      -1.916   2.385 -21.520  0.00  0.00    +0.162 A 
ATOM      6  C   UNL     1      -2.338   3.004 -22.582  0.00  0.00    +0.053 A 
ATOM      7  C   UNL     1      -1.529   3.210 -23.579  0.00  0.00    -0.030 A 
ATOM      8  C   UNL     1      -1.952   3.828 -24.642  0.00  0.00    +0.086 C 
ATOM      9  C   UNL     1      -1.143   4.034 -25.638  0.00  0.00    +0.136 C 
ATOM     10  N   UNL     1       0.088   3.620 -25.573  0.00  0.00    +0.239 N 
ATOM     11  H   UNL     1       1.011   3.527 -25.997  0.00  0.00    +0.204 HD
ATOM     12  C   UNL     1       0.896   3.826 -26.570  0.00  0.00    +0.191 C 
ENDROOT
BRANCH   5  13
ATOM     13  O   UNL     1      -2.724   2.180 -20.523  0.00  0.00    -0.491 OA
ATOM     14  C   UNL     1      -4.010   2.199 -20.714  0.00  0.00    +0.277 C 
ENDBRANCH   5  13
BRANCH   4  15
ATOM     15  O   UNL     1      -0.263   1.353 -20.392  0.00  0.00    -0.491 OA
ATOM     16  C   UNL     1       1.004   1.355 -20.098  0.00  0.00    +0.277 C 
ENDBRANCH   4  15
BRANCH   1  17
ATOM     17  C   UNL     1       1.741   2.588 -24.445  0.00  0.00    +0.094 C 
BRANCH  17  21
ATOM     18  C   UNL     1       4.485   4.873 -22.879  0.00  0.00    +0.161 A 
ATOM     19  C   UNL     1       4.791   3.678 -23.289  0.00  0.00    +0.049 A 
ATOM     20  C   UNL     1       3.876   2.916 -23.811  0.00  0.00    +0.007 A 
ATOM     21  C   UNL     1       2.655   3.349 -23.923  0.00  0.00    -0.038 A 
ATOM     22  C   UNL     1       2.351   4.545 -23.514  0.00  0.00    +0.053 A 
ATOM     23  C   UNL     1       3.265   5.307 -22.992  0.00  0.00    +0.159 A 
BRANCH  18  25
ATOM     24  C   UNL     1       6.564   5.141 -22.056  0.00  0.00    +0.277 C 
ATOM     25  O   UNL     1       5.400   5.635 -22.358  0.00  0.00    -0.491 OA
ENDBRANCH  18  25
BRANCH  23  26
ATOM     26  O   UNL     1       2.960   6.502 -22.582  0.00  0.00    -0.503 OA
ATOM     27  H   UNL     1       3.471   7.237 -22.859  0.00  0.00    +0.292 HD
ENDBRANCH  23  26
ENDBRANCH  17  21
ENDBRANCH   1  17
TORSDOF 6
ENDMDL
