MODEL 1
REMARK VINA RESULT:    -7.928      0.000      0.000
REMARK INTER + INTRA:          -8.698
REMARK INTER:                  -8.627
REMARK INTRA:                  -0.071
REMARK UNBOUND:                -0.074
REMARK  Name = ZINC000000001785
REMARK  4 active torsions:
REMARK  status: ('A' for Active; 'I' for Inactive)
REMARK    1  A    between atoms: C_4  and  C_5
REMARK    2  A    between atoms: C_8  and  O_9
REMARK    3  A    between atoms: C_15  and  O_16
REMARK    4  A    between atoms: C_18  and  O_19
REMARK                            x       y       z     vdW  Elec       q    Type
REMARK                         _______ _______ _______ _____ _____    ______ ____
ROOT
ATOM      1  O   UNL     1       3.557   0.287 -20.240  0.00  0.00    -0.292 OA
ATOM      2  C   UNL     1       3.191   1.118 -21.075  0.00  0.00    +0.174 C 
ATOM      3  C   UNL     1       1.369   1.035 -21.880  0.00  0.00    +0.129 C 
ATOM      4  C   UNL     1       0.825   2.464 -23.420  0.00  0.00    +0.211 C 
ATOM      5  O   UNL     1       2.302   3.785 -23.635  0.00  0.00    -0.483 OA
ATOM      6  C   UNL     1       3.873   3.781 -22.842  0.00  0.00    +0.139 A 
ATOM      7  C   UNL     1       4.850   4.726 -23.196  0.00  0.00    +0.092 A 
ATOM      8  C   UNL     1       6.113   4.718 -22.575  0.00  0.00    +0.124 A 
ATOM      9  C   UNL     1       6.468   3.776 -21.581  0.00  0.00    +0.091 A 
ATOM     10  C   UNL     1       5.611   2.750 -21.132  0.00  0.00    +0.134 A 
ATOM     11  C   UNL     1       4.315   2.615 -21.662  0.00  0.00    +0.101 A 
ENDROOT
BRANCH   4  12
ATOM     12  C   UNL     1      -2.019   3.163 -24.416  0.00  0.00    -0.007 A 
ATOM     13  C   UNL     1      -2.497   3.337 -25.808  0.00  0.00    +0.011 A 
ATOM     14  C   UNL     1      -3.789   3.653 -26.268  0.00  0.00    +0.046 A 
ATOM     15  C   UNL     1      -4.838   3.827 -25.379  0.00  0.00    +0.117 A 
ATOM     16  C   UNL     1      -4.548   3.706 -24.026  0.00  0.00    +0.046 A 
ATOM     17  C   UNL     1      -3.237   3.410 -23.604  0.00  0.00    +0.011 A 
BRANCH  15  18
ATOM     18  O   UNL     1      -6.095   4.108 -25.824  0.00  0.00    -0.507 OA
ATOM     19  H   UNL     1      -6.425   4.984 -25.776  0.00  0.00    +0.292 HD
ENDBRANCH  15  18
ENDBRANCH   4  12
BRANCH  10  20
ATOM     20  O   UNL     1       6.074   1.888 -20.177  0.00  0.00    -0.506 OA
ATOM     21  H   UNL     1       5.933   0.966 -20.270  0.00  0.00    +0.292 HD
ENDBRANCH  10  20
BRANCH   8  22
ATOM     22  O   UNL     1       7.021   5.661 -22.956  0.00  0.00    -0.507 OA
ATOM     23  H   UNL     1       6.816   6.572 -22.867  0.00  0.00    +0.292 HD
ENDBRANCH   8  22
TORSDOF 4
ENDMDL
MODEL 2
REMARK VINA RESULT:    -7.866      2.362      9.334
REMARK INTER + INTRA:          -8.630
REMARK INTER:                  -8.559
REMARK INTRA:                  -0.071
REMARK UNBOUND:                -0.074
REMARK  Name = ZINC000000001785
REMARK  4 active torsions:
REMARK  status: ('A' for Active; 'I' for Inactive)
REMARK    1  A    between atoms: C_4  and  C_5
REMARK    2  A    between atoms: C_8  and  O_9
REMARK    3  A    between atoms: C_15  and  O_16
REMARK    4  A    between atoms: C_18  and  O_19
REMARK                            x       y       z     vdW  Elec       q    Type
REMARK                         _______ _______ _______ _____ _____    ______ ____
ROOT
ATOM      1  O   UNL     1      -2.371   3.749 -26.422  0.00  0.00    -0.292 OA
ATOM      2  C   UNL     1      -1.693   3.574 -25.407  0.00  0.00    +0.174 C 
ATOM      3  C   UNL     1       0.299   3.577 -25.486  0.00  0.00    +0.129 C 
ATOM      4  C   UNL     1       1.432   3.161 -23.682  0.00  0.00    +0.211 C 
ATOM      5  O   UNL     1       0.174   3.002 -22.145  0.00  0.00    -0.483 OA
ATOM      6  C   UNL     1      -1.585   3.047 -22.183  0.00  0.00    +0.139 A 
ATOM      7  C   UNL     1      -2.328   2.802 -21.018  0.00  0.00    +0.092 A 
ATOM      8  C   UNL     1      -3.735   2.822 -21.048  0.00  0.00    +0.124 A 
ATOM      9  C   UNL     1      -4.469   3.082 -22.228  0.00  0.00    +0.091 A 
ATOM     10  C   UNL     1      -3.875   3.323 -23.484  0.00  0.00    +0.134 A 
ATOM     11  C   UNL     1      -2.475   3.327 -23.625  0.00  0.00    +0.101 A 
ENDROOT
BRANCH   4  12
ATOM     12  C   UNL     1       4.426   3.742 -23.166  0.00  0.00    -0.007 A 
ATOM     13  C   UNL     1       5.085   5.041 -22.894  0.00  0.00    +0.011 A 
ATOM     14  C   UNL     1       6.445   5.312 -22.658  0.00  0.00    +0.046 A 
ATOM     15  C   UNL     1       7.380   4.290 -22.634  0.00  0.00    +0.117 A 
ATOM     16  C   UNL     1       6.919   3.004 -22.882  0.00  0.00    +0.046 A 
ATOM     17  C   UNL     1       5.553   2.776 -23.136  0.00  0.00    +0.011 A 
BRANCH  15  18
ATOM     18  O   UNL     1       8.695   4.548 -22.379  0.00  0.00    -0.507 OA
ATOM     19  H   UNL     1       9.355   4.248 -22.973  0.00  0.00    +0.292 HD
ENDBRANCH  15  18
ENDBRANCH   4  12
BRANCH  10  20
ATOM     20  O   UNL     1      -4.691   3.544 -24.558  0.00  0.00    -0.506 OA
ATOM     21  H   UNL     1      -4.326   3.609 -25.418  0.00  0.00    +0.292 HD
ENDBRANCH  10  20
BRANCH   8  22
ATOM     22  O   UNL     1      -4.405   2.580 -19.884  0.00  0.00    -0.507 OA
ATOM     23  H   UNL     1      -4.569   3.281 -19.283  0.00  0.00    +0.292 HD
ENDBRANCH   8  22
TORSDOF 4
ENDMDL
MODEL 3
REMARK VINA RESULT:    -7.819      1.833      2.137
REMARK INTER + INTRA:          -8.579
REMARK INTER:                  -8.512
REMARK INTRA:                  -0.067
REMARK UNBOUND:                -0.074
REMARK  Name = ZINC000000001785
REMARK  4 active torsions:
REMARK  status: ('A' for Active; 'I' for Inactive)
REMARK    1  A    between atoms: C_4  and  C_5
REMARK    2  A    between atoms: C_8  and  O_9
REMARK    3  A    between atoms: C_15  and  O_16
REMARK    4  A    between atoms: C_18  and  O_19
REMARK                            x       y       z     vdW  Elec       q    Type
REMARK                         _______ _______ _______ _____ _____    ______ ____
ROOT
ATOM      1  O   UNL     1       4.969   0.406 -22.809  0.00  0.00    -0.292 OA
ATOM      2  C   UNL     1       4.230   1.393 -22.838  0.00  0.00    +0.174 C 
ATOM      3  C   UNL     1       2.252   1.193 -22.994  0.00  0.00    +0.129 C 
ATOM      4  C   UNL     1       1.017   2.971 -23.144  0.00  0.00    +0.211 C 
ATOM      5  O   UNL     1       2.165   4.584 -22.918  0.00  0.00    -0.483 OA
ATOM      6  C   UNL     1       3.916   4.644 -22.754  0.00  0.00    +0.139 A 
ATOM      7  C   UNL     1       4.584   5.879 -22.720  0.00  0.00    +0.092 A 
ATOM      8  C   UNL     1       5.986   5.932 -22.604  0.00  0.00    +0.124 A 
ATOM      9  C   UNL     1       6.789   4.770 -22.519  0.00  0.00    +0.091 A 
ATOM     10  C   UNL     1       6.275   3.457 -22.563  0.00  0.00    +0.134 A 
ATOM     11  C   UNL     1       4.892   3.233 -22.688  0.00  0.00    +0.101 A 
ENDROOT
BRANCH   4  12
ATOM     12  C   UNL     1      -2.037   3.182 -22.695  0.00  0.00    -0.007 A 
ATOM     13  C   UNL     1      -3.089   3.585 -23.657  0.00  0.00    +0.011 A 
ATOM     14  C   UNL     1      -4.479   3.682 -23.460  0.00  0.00    +0.046 A 
ATOM     15  C   UNL     1      -5.049   3.358 -22.238  0.00  0.00    +0.117 A 
ATOM     16  C   UNL     1      -4.187   2.968 -21.221  0.00  0.00    +0.046 A 
ATOM     17  C   UNL     1      -2.799   2.905 -21.451  0.00  0.00    +0.011 A 
BRANCH  15  18
ATOM     18  O   UNL     1      -6.398   3.427 -22.053  0.00  0.00    -0.507 OA
ATOM     19  H   UNL     1      -6.793   2.997 -21.320  0.00  0.00    +0.292 HD
ENDBRANCH  15  18
ENDBRANCH   4  12
BRANCH  10  20
ATOM     20  O   UNL     1       7.154   2.413 -22.490  0.00  0.00    -0.506 OA
ATOM     21  H   UNL     1       8.009   2.544 -22.131  0.00  0.00    +0.292 HD
ENDBRANCH  10  20
BRANCH   8  22
ATOM     22  O   UNL     1       6.581   7.159 -22.573  0.00  0.00    -0.507 OA
ATOM     23  H   UNL     1       6.215   7.870 -23.060  0.00  0.00    +0.292 HD
ENDBRANCH   8  22
TORSDOF 4
ENDMDL
MODEL 4
REMARK VINA RESULT:    -6.976      1.340      3.158
REMARK INTER + INTRA:          -7.663
REMARK INTER:                  -7.595
REMARK INTRA:                  -0.067
REMARK UNBOUND:                -0.074
REMARK  Name = ZINC000000001785
REMARK  4 active torsions:
REMARK  status: ('A' for Active; 'I' for Inactive)
REMARK    1  A    between atoms: C_4  and  C_5
REMARK    2  A    between atoms: C_8  and  O_9
REMARK    3  A    between atoms: C_15  and  O_16
REMARK    4  A    between atoms: C_18  and  O_19
REMARK                            x       y       z     vdW  Elec       q    Type
REMARK                         _______ _______ _______ _____ _____    ______ ____
ROOT
ATOM      1  O   UNL     1       5.099   5.586 -23.057  0.00  0.00    -0.292 OA
ATOM      2  C   UNL     1       4.195   4.765 -22.885  0.00  0.00    +0.174 C 
ATOM      3  C   UNL     1       2.320   5.169 -23.429  0.00  0.00    +0.129 C 
ATOM      4  C   UNL     1       0.758   3.723 -23.006  0.00  0.00    +0.211 C 
ATOM      5  O   UNL     1       1.583   2.077 -22.243  0.00  0.00    -0.483 OA
ATOM      6  C   UNL     1       3.273   1.813 -21.828  0.00  0.00    +0.139 A 
ATOM      7  C   UNL     1       3.670   0.629 -21.187  0.00  0.00    +0.092 A 
ATOM      8  C   UNL     1       5.018   0.420 -20.839  0.00  0.00    +0.124 A 
ATOM      9  C   UNL     1       6.031   1.370 -21.106  0.00  0.00    +0.091 A 
ATOM     10  C   UNL     1       5.793   2.618 -21.720  0.00  0.00    +0.134 A 
ATOM     11  C   UNL     1       4.494   2.984 -22.120  0.00  0.00    +0.101 A 
ENDROOT
BRANCH   4  12
ATOM     12  C   UNL     1      -2.070   3.590 -24.253  0.00  0.00    -0.007 A 
ATOM     13  C   UNL     1      -2.450   3.333 -25.662  0.00  0.00    +0.011 A 
ATOM     14  C   UNL     1      -3.733   3.270 -26.236  0.00  0.00    +0.046 A 
ATOM     15  C   UNL     1      -4.869   3.437 -25.459  0.00  0.00    +0.117 A 
ATOM     16  C   UNL     1      -4.679   3.698 -24.108  0.00  0.00    +0.046 A 
ATOM     17  C   UNL     1      -3.377   3.775 -23.575  0.00  0.00    +0.011 A 
BRANCH  15  18
ATOM     18  O   UNL     1      -6.113   3.351 -26.009  0.00  0.00    -0.507 OA
ATOM     19  H   UNL     1      -6.722   4.057 -25.905  0.00  0.00    +0.292 HD
ENDBRANCH  15  18
ENDBRANCH   4  12
BRANCH  10  20
ATOM     20  O   UNL     1       6.851   3.461 -21.910  0.00  0.00    -0.506 OA
ATOM     21  H   UNL     1       7.165   3.632 -22.776  0.00  0.00    +0.292 HD
ENDBRANCH  10  20
BRANCH   8  22
ATOM     22  O   UNL     1       5.347  -0.751 -20.221  0.00  0.00    -0.507 OA
ATOM     23  H   UNL     1       6.004  -0.760 -19.553  0.00  0.00    +0.292 HD
ENDBRANCH   8  22
TORSDOF 4
ENDMDL
MODEL 5
REMARK VINA RESULT:    -6.899      2.163      9.318
REMARK INTER + INTRA:          -7.578
REMARK INTER:                  -7.507
REMARK INTRA:                  -0.071
REMARK UNBOUND:                -0.074
REMARK  Name = ZINC000000001785
REMARK  4 active torsions:
REMARK  status: ('A' for Active; 'I' for Inactive)
REMARK    1  A    between atoms: C_4  and  C_5
REMARK    2  A    between atoms: C_8  and  O_9
REMARK    3  A    between atoms: C_15  and  O_16
REMARK    4  A    between atoms: C_18  and  O_19
REMARK                            x       y       z     vdW  Elec       q    Type
REMARK                         _______ _______ _______ _____ _____    ______ ____
ROOT
ATOM      1  O   UNL     1      -3.807   3.880 -21.530  0.00  0.00    -0.292 OA
ATOM      2  C   UNL     1      -2.898   3.877 -22.363  0.00  0.00    +0.174 C 
ATOM      3  C   UNL     1      -0.994   4.098 -21.812  0.00  0.00    +0.129 C 
ATOM      4  C   UNL     1       0.547   4.188 -23.337  0.00  0.00    +0.211 C 
ATOM      5  O   UNL     1      -0.277   3.845 -25.118  0.00  0.00    -0.483 OA
ATOM      6  C   UNL     1      -1.984   3.630 -25.491  0.00  0.00    +0.139 A 
ATOM      7  C   UNL     1      -2.410   3.513 -26.824  0.00  0.00    +0.092 A 
ATOM      8  C   UNL     1      -3.776   3.356 -27.127  0.00  0.00    +0.124 A 
ATOM      9  C   UNL     1      -4.779   3.311 -26.131  0.00  0.00    +0.091 A 
ATOM     10  C   UNL     1      -4.519   3.438 -24.751  0.00  0.00    +0.134 A 
ATOM     11  C   UNL     1      -3.203   3.612 -24.282  0.00  0.00    +0.101 A 
ENDROOT
BRANCH   4  12
ATOM     12  C   UNL     1       3.594   3.812 -22.954  0.00  0.00    -0.007 A 
ATOM     13  C   UNL     1       4.344   2.570 -22.650  0.00  0.00    +0.011 A 
ATOM     14  C   UNL     1       5.729   2.392 -22.476  0.00  0.00    +0.046 A 
ATOM     15  C   UNL     1       6.605   3.459 -22.606  0.00  0.00    +0.117 A 
ATOM     16  C   UNL     1       6.052   4.702 -22.883  0.00  0.00    +0.046 A 
ATOM     17  C   UNL     1       4.659   4.844 -23.029  0.00  0.00    +0.011 A 
BRANCH  15  18
ATOM     18  O   UNL     1       7.949   3.283 -22.463  0.00  0.00    -0.507 OA
ATOM     19  H   UNL     1       8.541   3.960 -22.726  0.00  0.00    +0.292 HD
ENDBRANCH  15  18
ENDBRANCH   4  12
BRANCH  10  20
ATOM     20  O   UNL     1      -5.574   3.396 -23.884  0.00  0.00    -0.506 OA
ATOM     21  H   UNL     1      -6.393   3.782 -24.124  0.00  0.00    +0.292 HD
ENDBRANCH  10  20
BRANCH   8  22
ATOM     22  O   UNL     1      -4.132   3.244 -28.439  0.00  0.00    -0.507 OA
ATOM     23  H   UNL     1      -4.169   2.399 -28.845  0.00  0.00    +0.292 HD
ENDBRANCH   8  22
TORSDOF 4
ENDMDL
MODEL 6
REMARK VINA RESULT:    -6.507      2.317      3.630
REMARK INTER + INTRA:          -7.152
REMARK INTER:                  -7.081
REMARK INTRA:                  -0.071
REMARK UNBOUND:                -0.074
REMARK  Name = ZINC000000001785
REMARK  4 active torsions:
REMARK  status: ('A' for Active; 'I' for Inactive)
REMARK    1  A    between atoms: C_4  and  C_5
REMARK    2  A    between atoms: C_8  and  O_9
REMARK    3  A    between atoms: C_15  and  O_16
REMARK    4  A    between atoms: C_18  and  O_19
REMARK                            x       y       z     vdW  Elec       q    Type
REMARK                         _______ _______ _______ _____ _____    ______ ____
ROOT
ATOM      1  O   UNL     1       5.317   7.885 -21.864  0.00  0.00    -0.292 OA
ATOM      2  C   UNL     1       4.822   6.831 -22.270  0.00  0.00    +0.174 C 
ATOM      3  C   UNL     1       2.852   6.643 -22.509  0.00  0.00    +0.129 C 
ATOM      4  C   UNL     1       2.038   4.729 -23.128  0.00  0.00    +0.211 C 
ATOM      5  O   UNL     1       3.538   3.479 -23.524  0.00  0.00    -0.483 OA
ATOM      6  C   UNL     1       5.261   3.762 -23.304  0.00  0.00    +0.139 A 
ATOM      7  C   UNL     1       6.185   2.727 -23.523  0.00  0.00    +0.092 A 
ATOM      8  C   UNL     1       7.563   2.945 -23.335  0.00  0.00    +0.124 A 
ATOM      9  C   UNL     1       8.088   4.191 -22.919  0.00  0.00    +0.091 A 
ATOM     10  C   UNL     1       7.294   5.321 -22.635  0.00  0.00    +0.134 A 
ATOM     11  C   UNL     1       5.894   5.265 -22.765  0.00  0.00    +0.101 A 
ENDROOT
BRANCH   4  12
ATOM     12  C   UNL     1      -0.776   4.168 -24.285  0.00  0.00    -0.007 A 
ATOM     13  C   UNL     1      -2.099   4.384 -23.651  0.00  0.00    +0.011 A 
ATOM     14  C   UNL     1      -3.381   4.132 -24.172  0.00  0.00    +0.046 A 
ATOM     15  C   UNL     1      -3.543   3.632 -25.454  0.00  0.00    +0.117 A 
ATOM     16  C   UNL     1      -2.390   3.366 -26.180  0.00  0.00    +0.046 A 
ATOM     17  C   UNL     1      -1.123   3.610 -25.616  0.00  0.00    +0.011 A 
BRANCH  15  18
ATOM     18  O   UNL     1      -4.786   3.412 -25.969  0.00  0.00    -0.507 OA
ATOM     19  H   UNL     1      -5.474   4.030 -25.815  0.00  0.00    +0.292 HD
ENDBRANCH  15  18
ENDBRANCH   4  12
BRANCH  10  20
ATOM     20  O   UNL     1       7.916   6.466 -22.224  0.00  0.00    -0.506 OA
ATOM     21  H   UNL     1       7.743   6.814 -21.371  0.00  0.00    +0.292 HD
ENDBRANCH  10  20
BRANCH   8  22
ATOM     22  O   UNL     1       8.414   1.905 -23.566  0.00  0.00    -0.507 OA
ATOM     23  H   UNL     1       8.639   1.670 -24.445  0.00  0.00    +0.292 HD
ENDBRANCH   8  22
TORSDOF 4
ENDMDL
MODEL 7
REMARK VINA RESULT:    -6.012      4.331      7.969
REMARK INTER + INTRA:          -6.614
REMARK INTER:                  -6.543
REMARK INTRA:                  -0.071
REMARK UNBOUND:                -0.074
REMARK  Name = ZINC000000001785
REMARK  4 active torsions:
REMARK  status: ('A' for Active; 'I' for Inactive)
REMARK    1  A    between atoms: C_4  and  C_5
REMARK    2  A    between atoms: C_8  and  O_9
REMARK    3  A    between atoms: C_15  and  O_16
REMARK    4  A    between atoms: C_18  and  O_19
REMARK                            x       y       z     vdW  Elec       q    Type
REMARK                         _______ _______ _______ _____ _____    ______ ____
ROOT
ATOM      1  O   UNL     1       0.088   3.149 -23.475  0.00  0.00    -0.292 OA
ATOM      2  C   UNL     1       1.181   3.648 -23.199  0.00  0.00    +0.174 C 
ATOM      3  C   UNL     1       1.451   5.623 -23.235  0.00  0.00    +0.129 C 
ATOM      4  C   UNL     1       3.427   6.429 -22.838  0.00  0.00    +0.211 C 
ATOM      5  O   UNL     1       4.645   4.942 -22.316  0.00  0.00    -0.483 OA
ATOM      6  C   UNL     1       4.290   3.218 -22.287  0.00  0.00    +0.139 A 
ATOM      7  C   UNL     1       5.304   2.289 -22.004  0.00  0.00    +0.092 A 
ATOM      8  C   UNL     1       5.027   0.908 -21.995  0.00  0.00    +0.124 A 
ATOM      9  C   UNL     1       3.741   0.386 -22.266  0.00  0.00    +0.091 A 
ATOM     10  C   UNL     1       2.624   1.183 -22.591  0.00  0.00    +0.134 A 
ATOM     11  C   UNL     1       2.737   2.585 -22.653  0.00  0.00    +0.101 A 
ENDROOT
BRANCH   4  12
ATOM     12  C   UNL     1       4.153   9.344 -22.100  0.00  0.00    -0.007 A 
ATOM     13  C   UNL     1       4.135   9.996 -20.769  0.00  0.00    +0.011 A 
ATOM     14  C   UNL     1       4.465  11.320 -20.427  0.00  0.00    +0.046 A 
ATOM     15  C   UNL     1       4.899  12.217 -21.390  0.00  0.00    +0.117 A 
ATOM     16  C   UNL     1       4.963  11.758 -22.699  0.00  0.00    +0.046 A 
ATOM     17  C   UNL     1       4.603  10.432 -23.006  0.00  0.00    +0.011 A 
BRANCH  15  18
ATOM     18  O   UNL     1       5.244  13.493 -21.055  0.00  0.00    -0.507 OA
ATOM     19  H   UNL     1       4.602  14.073 -20.695  0.00  0.00    +0.292 HD
ENDBRANCH  15  18
ENDBRANCH   4  12
BRANCH  10  20
ATOM     20  O   UNL     1       1.435   0.561 -22.851  0.00  0.00    -0.506 OA
ATOM     21  H   UNL     1       0.717   0.655 -22.256  0.00  0.00    +0.292 HD
ENDBRANCH  10  20
BRANCH   8  22
ATOM     22  O   UNL     1       6.050   0.052 -21.710  0.00  0.00    -0.507 OA
ATOM     23  H   UNL     1       6.761   0.334 -21.169  0.00  0.00    +0.292 HD
ENDBRANCH   8  22
TORSDOF 4
ENDMDL
