MODEL 1
REMARK VINA RESULT:    -7.674      0.000      0.000
REMARK INTER + INTRA:          -9.606
REMARK INTER:                 -11.852
REMARK INTRA:                   2.246
REMARK UNBOUND:                 2.105
REMARK  Name = ZINC000001649869
REMARK  17 active torsions:
REMARK  status: ('A' for Active; 'I' for Inactive)
REMARK    1  A    between atoms: C_1  and  O_2
REMARK    2  A    between atoms: O_2  and  C_3
REMARK    3  A    between atoms: C_5  and  C_6
REMARK    4  A    between atoms: C_9  and  O_10
REMARK    5  A    between atoms: O_10  and  C_11
REMARK    6  A    between atoms: C_12  and  O_13
REMARK    7  A    between atoms: O_13  and  C_14
REMARK    8  A    between atoms: C_15  and  O_16
REMARK    9  A    between atoms: O_16  and  C_17
REMARK   10  A    between atoms: C_18  and  O_19
REMARK   11  A    between atoms: O_19  and  C_20
REMARK   12  A    between atoms: C_24  and  O_25
REMARK   13  A    between atoms: O_25  and  C_26
REMARK   14  A    between atoms: C_28  and  O_29
REMARK   15  A    between atoms: O_29  and  C_30
REMARK   16  A    between atoms: C_31  and  O_32
REMARK   17  A    between atoms: O_32  and  C_33
REMARK                            x       y       z     vdW  Elec       q    Type
REMARK                         _______ _______ _______ _____ _____    ______ ____
ROOT
ATOM      1  C   UNL     1       0.620   2.855 -22.903  0.00  0.00    +0.181 A 
ATOM      2  O   UNL     1       1.532   3.763 -23.085  0.00  0.00    -0.447 OA
ATOM      3  C   UNL     1       2.787   3.466 -22.922  0.00  0.00    +0.188 A 
ATOM      4  C   UNL     1       3.699   4.374 -23.104  0.00  0.00    +0.209 A 
ATOM      5  C   UNL     1       4.955   4.076 -22.941  0.00  0.00    +0.211 A 
ATOM      6  C   UNL     1       5.297   2.871 -22.595  0.00  0.00    +0.208 A 
ATOM      7  C   UNL     1       4.384   1.963 -22.412  0.00  0.00    +0.180 A 
ATOM      8  C   UNL     1       3.130   2.260 -22.576  0.00  0.00    +0.117 A 
ATOM      9  C   UNL     1       2.218   1.352 -22.393  0.00  0.00    +0.238 A 
ATOM     10  O   UNL     1       2.560   0.147 -22.048  0.00  0.00    -0.283 OA
ATOM     11  C   UNL     1       0.962   1.649 -22.557  0.00  0.00    +0.211 A 
ENDROOT
BRANCH   1  14
ATOM     12  C   UNL     1      -2.563   3.988 -22.253  0.00  0.00    +0.166 A 
ATOM     13  C   UNL     1      -1.307   3.689 -22.091  0.00  0.00    +0.061 A 
ATOM     14  C   UNL     1      -0.635   3.153 -23.066  0.00  0.00    +0.028 A 
ATOM     15  C   UNL     1      -1.218   2.916 -24.204  0.00  0.00    +0.061 A 
ATOM     16  C   UNL     1      -2.472   3.215 -24.367  0.00  0.00    +0.166 A 
ATOM     17  C   UNL     1      -3.145   3.751 -23.391  0.00  0.00    +0.204 A 
BRANCH  16  18
ATOM     18  O   UNL     1      -3.054   2.978 -25.505  0.00  0.00    -0.491 OA
ATOM     19  C   UNL     1      -2.647   3.582 -26.582  0.00  0.00    +0.277 C 
ENDBRANCH  16  18
BRANCH  12  21
ATOM     20  C   UNL     1      -3.214   3.978 -20.099  0.00  0.00    +0.277 C 
ATOM     21  O   UNL     1      -3.235   4.523 -21.278  0.00  0.00    -0.491 OA
ENDBRANCH  12  21
BRANCH  17  22
ATOM     22  O   UNL     1      -4.399   4.049 -23.554  0.00  0.00    -0.488 OA
ATOM     23  C   UNL     1      -5.313   3.388 -22.909  0.00  0.00    +0.277 C 
ENDBRANCH  17  22
ENDBRANCH   1  14
BRANCH   7  24
ATOM     24  O   UNL     1       4.727   0.757 -22.067  0.00  0.00    -0.491 OA
ATOM     25  C   UNL     1       5.141   0.521 -20.858  0.00  0.00    +0.277 C 
ENDBRANCH   7  24
BRANCH   6  26
ATOM     26  O   UNL     1       6.552   2.574 -22.432  0.00  0.00    -0.488 OA
ATOM     27  C   UNL     1       7.332   2.457 -23.465  0.00  0.00    +0.277 C 
ENDBRANCH   6  26
BRANCH   5  28
ATOM     28  O   UNL     1       5.867   4.984 -23.123  0.00  0.00    -0.488 OA
ATOM     29  C   UNL     1       6.379   5.604 -22.102  0.00  0.00    +0.277 C 
ENDBRANCH   5  28
BRANCH   4  30
ATOM     30  O   UNL     1       3.356   5.579 -23.450  0.00  0.00    -0.488 OA
ATOM     31  C   UNL     1       3.128   6.477 -22.538  0.00  0.00    +0.277 C 
ENDBRANCH   4  30
BRANCH  11  32
ATOM     32  O   UNL     1       0.050   0.741 -22.374  0.00  0.00    -0.488 OA
ATOM     33  C   UNL     1      -0.682   0.763 -21.300  0.00  0.00    +0.277 C 
ENDBRANCH  11  32
TORSDOF 9
ENDMDL
MODEL 2
REMARK VINA RESULT:    -7.664      0.038      2.103
REMARK INTER + INTRA:          -9.591
REMARK INTER:                 -11.890
REMARK INTRA:                   2.300
REMARK UNBOUND:                 2.105
REMARK  Name = ZINC000001649869
REMARK  17 active torsions:
REMARK  status: ('A' for Active; 'I' for Inactive)
REMARK    1  A    between atoms: C_1  and  O_2
REMARK    2  A    between atoms: O_2  and  C_3
REMARK    3  A    between atoms: C_5  and  C_6
REMARK    4  A    between atoms: C_9  and  O_10
REMARK    5  A    between atoms: O_10  and  C_11
REMARK    6  A    between atoms: C_12  and  O_13
REMARK    7  A    between atoms: O_13  and  C_14
REMARK    8  A    between atoms: C_15  and  O_16
REMARK    9  A    between atoms: O_16  and  C_17
REMARK   10  A    between atoms: C_18  and  O_19
REMARK   11  A    between atoms: O_19  and  C_20
REMARK   12  A    between atoms: C_24  and  O_25
REMARK   13  A    between atoms: O_25  and  C_26
REMARK   14  A    between atoms: C_28  and  O_29
REMARK   15  A    between atoms: O_29  and  C_30
REMARK   16  A    between atoms: C_31  and  O_32
REMARK   17  A    between atoms: O_32  and  C_33
REMARK                            x       y       z     vdW  Elec       q    Type
REMARK                         _______ _______ _______ _____ _____    ______ ____
ROOT
ATOM      1  C   UNL     1       0.593   2.850 -22.889  0.00  0.00    +0.181 A 
ATOM      2  O   UNL     1       1.502   3.761 -23.078  0.00  0.00    -0.447 OA
ATOM      3  C   UNL     1       2.758   3.470 -22.913  0.00  0.00    +0.188 A 
ATOM      4  C   UNL     1       3.666   4.380 -23.101  0.00  0.00    +0.209 A 
ATOM      5  C   UNL     1       4.923   4.089 -22.936  0.00  0.00    +0.211 A 
ATOM      6  C   UNL     1       5.270   2.887 -22.582  0.00  0.00    +0.208 A 
ATOM      7  C   UNL     1       4.361   1.977 -22.394  0.00  0.00    +0.180 A 
ATOM      8  C   UNL     1       3.105   2.268 -22.559  0.00  0.00    +0.117 A 
ATOM      9  C   UNL     1       2.197   1.357 -22.371  0.00  0.00    +0.238 A 
ATOM     10  O   UNL     1       2.545   0.156 -22.017  0.00  0.00    -0.283 OA
ATOM     11  C   UNL     1       0.940   1.648 -22.536  0.00  0.00    +0.211 A 
ENDROOT
BRANCH   1  14
ATOM     12  C   UNL     1      -2.497   3.194 -24.361  0.00  0.00    +0.166 A 
ATOM     13  C   UNL     1      -1.241   2.902 -24.195  0.00  0.00    +0.061 A 
ATOM     14  C   UNL     1      -0.663   3.142 -23.055  0.00  0.00    +0.028 A 
ATOM     15  C   UNL     1      -1.342   3.674 -22.082  0.00  0.00    +0.061 A 
ATOM     16  C   UNL     1      -2.597   3.966 -22.248  0.00  0.00    +0.166 A 
ATOM     17  C   UNL     1      -3.175   3.726 -23.388  0.00  0.00    +0.204 A 
BRANCH  16  18
ATOM     18  O   UNL     1      -3.275   4.497 -21.274  0.00  0.00    -0.491 OA
ATOM     19  C   UNL     1      -3.214   3.982 -20.082  0.00  0.00    +0.277 C 
ENDBRANCH  16  18
BRANCH  12  21
ATOM     20  C   UNL     1      -2.674   3.569 -26.574  0.00  0.00    +0.277 C 
ATOM     21  O   UNL     1      -3.074   2.954 -25.501  0.00  0.00    -0.491 OA
ENDBRANCH  12  21
BRANCH  17  22
ATOM     22  O   UNL     1      -4.431   4.018 -23.554  0.00  0.00    -0.488 OA
ATOM     23  C   UNL     1      -5.342   3.369 -22.892  0.00  0.00    +0.277 C 
ENDBRANCH  17  22
ENDBRANCH   1  14
BRANCH   7  24
ATOM     24  O   UNL     1       4.709   0.775 -22.040  0.00  0.00    -0.491 OA
ATOM     25  C   UNL     1       5.117   0.547 -20.828  0.00  0.00    +0.277 C 
ENDBRANCH   7  24
BRANCH   6  26
ATOM     26  O   UNL     1       6.526   2.596 -22.417  0.00  0.00    -0.488 OA
ATOM     27  C   UNL     1       7.311   2.496 -23.448  0.00  0.00    +0.277 C 
ENDBRANCH   6  26
BRANCH   5  28
ATOM     28  O   UNL     1       5.831   5.000 -23.124  0.00  0.00    -0.488 OA
ATOM     29  C   UNL     1       6.316   5.653 -22.111  0.00  0.00    +0.277 C 
ENDBRANCH   5  28
BRANCH   4  30
ATOM     30  O   UNL     1       3.318   5.582 -23.455  0.00  0.00    -0.488 OA
ATOM     31  C   UNL     1       3.078   6.482 -22.549  0.00  0.00    +0.277 C 
ENDBRANCH   4  30
BRANCH  11  32
ATOM     32  O   UNL     1       0.032   0.738 -22.347  0.00  0.00    -0.488 OA
ATOM     33  C   UNL     1      -0.705   0.768 -21.277  0.00  0.00    +0.277 C 
ENDBRANCH  11  32
TORSDOF 9
ENDMDL
MODEL 3
REMARK VINA RESULT:    -7.190      1.434      7.873
REMARK INTER + INTRA:          -8.867
REMARK INTER:                 -10.995
REMARK INTRA:                   2.128
REMARK UNBOUND:                 2.105
REMARK  Name = ZINC000001649869
REMARK  17 active torsions:
REMARK  status: ('A' for Active; 'I' for Inactive)
REMARK    1  A    between atoms: C_1  and  O_2
REMARK    2  A    between atoms: O_2  and  C_3
REMARK    3  A    between atoms: C_5  and  C_6
REMARK    4  A    between atoms: C_9  and  O_10
REMARK    5  A    between atoms: O_10  and  C_11
REMARK    6  A    between atoms: C_12  and  O_13
REMARK    7  A    between atoms: O_13  and  C_14
REMARK    8  A    between atoms: C_15  and  O_16
REMARK    9  A    between atoms: O_16  and  C_17
REMARK   10  A    between atoms: C_18  and  O_19
REMARK   11  A    between atoms: O_19  and  C_20
REMARK   12  A    between atoms: C_24  and  O_25
REMARK   13  A    between atoms: O_25  and  C_26
REMARK   14  A    between atoms: C_28  and  O_29
REMARK   15  A    between atoms: O_29  and  C_30
REMARK   16  A    between atoms: C_31  and  O_32
REMARK   17  A    between atoms: O_32  and  C_33
REMARK                            x       y       z     vdW  Elec       q    Type
REMARK                         _______ _______ _______ _____ _____    ______ ____
ROOT
ATOM      1  C   UNL     1       0.607   3.229 -23.440  0.00  0.00    +0.181 A 
ATOM      2  O   UNL     1      -0.364   3.217 -22.575  0.00  0.00    -0.447 OA
ATOM      3  C   UNL     1      -1.594   3.328 -22.978  0.00  0.00    +0.188 A 
ATOM      4  C   UNL     1      -2.565   3.316 -22.113  0.00  0.00    +0.209 A 
ATOM      5  C   UNL     1      -3.796   3.427 -22.515  0.00  0.00    +0.211 A 
ATOM      6  C   UNL     1      -4.057   3.550 -23.783  0.00  0.00    +0.208 A 
ATOM      7  C   UNL     1      -3.086   3.561 -24.648  0.00  0.00    +0.180 A 
ATOM      8  C   UNL     1      -1.855   3.450 -24.245  0.00  0.00    +0.117 A 
ATOM      9  C   UNL     1      -0.885   3.462 -25.110  0.00  0.00    +0.238 A 
ATOM     10  O   UNL     1      -1.145   3.584 -26.378  0.00  0.00    -0.283 OA
ATOM     11  C   UNL     1       0.347   3.351 -24.708  0.00  0.00    +0.211 A 
ENDROOT
BRANCH   1  14
ATOM     12  C   UNL     1       3.845   4.051 -22.619  0.00  0.00    +0.166 A 
ATOM     13  C   UNL     1       2.613   4.161 -23.023  0.00  0.00    +0.061 A 
ATOM     14  C   UNL     1       1.838   3.118 -23.036  0.00  0.00    +0.028 A 
ATOM     15  C   UNL     1       2.294   1.964 -22.646  0.00  0.00    +0.061 A 
ATOM     16  C   UNL     1       3.524   1.854 -22.243  0.00  0.00    +0.166 A 
ATOM     17  C   UNL     1       4.300   2.898 -22.229  0.00  0.00    +0.204 A 
BRANCH  16  18
ATOM     18  O   UNL     1       3.980   0.701 -21.853  0.00  0.00    -0.491 OA
ATOM     19  C   UNL     1       3.720   0.272 -20.653  0.00  0.00    +0.277 C 
ENDBRANCH  16  18
BRANCH  12  21
ATOM     20  C   UNL     1       4.107   6.283 -22.482  0.00  0.00    +0.277 C 
ATOM     21  O   UNL     1       4.620   5.095 -22.605  0.00  0.00    -0.491 OA
ENDBRANCH  12  21
BRANCH  17  22
ATOM     22  O   UNL     1       5.531   2.788 -21.825  0.00  0.00    -0.488 OA
ATOM     23  C   UNL     1       6.489   2.654 -22.693  0.00  0.00    +0.277 C 
ENDBRANCH  17  22
ENDBRANCH   1  14
BRANCH   7  24
ATOM     24  O   UNL     1      -3.346   3.684 -25.916  0.00  0.00    -0.491 OA
ATOM     25  C   UNL     1      -4.036   2.768 -26.529  0.00  0.00    +0.277 C 
ENDBRANCH   7  24
BRANCH   6  26
ATOM     26  O   UNL     1      -5.287   3.661 -24.186  0.00  0.00    -0.488 OA
ATOM     27  C   UNL     1      -5.771   4.830 -24.482  0.00  0.00    +0.277 C 
ENDBRANCH   6  26
BRANCH   5  28
ATOM     28  O   UNL     1      -4.766   3.416 -21.650  0.00  0.00    -0.488 OA
ATOM     29  C   UNL     1      -5.427   2.318 -21.430  0.00  0.00    +0.277 C 
ENDBRANCH   5  28
BRANCH   4  30
ATOM     30  O   UNL     1      -2.304   3.194 -20.845  0.00  0.00    -0.488 OA
ATOM     31  C   UNL     1      -2.776   4.060 -19.998  0.00  0.00    +0.277 C 
ENDBRANCH   4  30
BRANCH  11  32
ATOM     32  O   UNL     1       1.317   3.363 -25.573  0.00  0.00    -0.488 OA
ATOM     33  C   UNL     1       1.776   2.243 -26.049  0.00  0.00    +0.277 C 
ENDBRANCH  11  32
TORSDOF 9
ENDMDL
MODEL 4
REMARK VINA RESULT:    -7.147      1.447      7.857
REMARK INTER + INTRA:          -8.802
REMARK INTER:                 -10.761
REMARK INTRA:                   1.959
REMARK UNBOUND:                 2.105
REMARK  Name = ZINC000001649869
REMARK  17 active torsions:
REMARK  status: ('A' for Active; 'I' for Inactive)
REMARK    1  A    between atoms: C_1  and  O_2
REMARK    2  A    between atoms: O_2  and  C_3
REMARK    3  A    between atoms: C_5  and  C_6
REMARK    4  A    between atoms: C_9  and  O_10
REMARK    5  A    between atoms: O_10  and  C_11
REMARK    6  A    between atoms: C_12  and  O_13
REMARK    7  A    between atoms: O_13  and  C_14
REMARK    8  A    between atoms: C_15  and  O_16
REMARK    9  A    between atoms: O_16  and  C_17
REMARK   10  A    between atoms: C_18  and  O_19
REMARK   11  A    between atoms: O_19  and  C_20
REMARK   12  A    between atoms: C_24  and  O_25
REMARK   13  A    between atoms: O_25  and  C_26
REMARK   14  A    between atoms: C_28  and  O_29
REMARK   15  A    between atoms: O_29  and  C_30
REMARK   16  A    between atoms: C_31  and  O_32
REMARK   17  A    between atoms: O_32  and  C_33
REMARK                            x       y       z     vdW  Elec       q    Type
REMARK                         _______ _______ _______ _____ _____    ______ ____
ROOT
ATOM      1  C   UNL     1       0.563   3.235 -23.461  0.00  0.00    +0.181 A 
ATOM      2  O   UNL     1      -0.413   3.219 -22.601  0.00  0.00    -0.447 OA
ATOM      3  C   UNL     1      -1.642   3.327 -23.011  0.00  0.00    +0.188 A 
ATOM      4  C   UNL     1      -2.617   3.311 -22.151  0.00  0.00    +0.209 A 
ATOM      5  C   UNL     1      -3.846   3.419 -22.561  0.00  0.00    +0.211 A 
ATOM      6  C   UNL     1      -4.100   3.542 -23.830  0.00  0.00    +0.208 A 
ATOM      7  C   UNL     1      -3.124   3.558 -24.689  0.00  0.00    +0.180 A 
ATOM      8  C   UNL     1      -1.895   3.450 -24.280  0.00  0.00    +0.117 A 
ATOM      9  C   UNL     1      -0.920   3.466 -25.139  0.00  0.00    +0.238 A 
ATOM     10  O   UNL     1      -1.174   3.590 -26.408  0.00  0.00    -0.283 OA
ATOM     11  C   UNL     1       0.309   3.358 -24.730  0.00  0.00    +0.211 A 
ENDROOT
BRANCH   1  14
ATOM     12  C   UNL     1       3.481   1.861 -22.265  0.00  0.00    +0.166 A 
ATOM     13  C   UNL     1       2.252   1.970 -22.676  0.00  0.00    +0.061 A 
ATOM     14  C   UNL     1       1.792   3.127 -23.050  0.00  0.00    +0.028 A 
ATOM     15  C   UNL     1       2.560   4.175 -23.014  0.00  0.00    +0.061 A 
ATOM     16  C   UNL     1       3.789   4.066 -22.603  0.00  0.00    +0.166 A 
ATOM     17  C   UNL     1       4.249   2.909 -22.229  0.00  0.00    +0.204 A 
BRANCH  16  18
ATOM     18  O   UNL     1       4.557   5.114 -22.567  0.00  0.00    -0.491 OA
ATOM     19  C   UNL     1       4.032   6.303 -22.515  0.00  0.00    +0.277 C 
ENDBRANCH  16  18
BRANCH  12  21
ATOM     20  C   UNL     1       3.746   0.290 -20.675  0.00  0.00    +0.277 C 
ATOM     21  O   UNL     1       3.941   0.704 -21.891  0.00  0.00    -0.491 OA
ENDBRANCH  12  21
BRANCH  17  22
ATOM     22  O   UNL     1       5.478   2.800 -21.818  0.00  0.00    -0.488 OA
ATOM     23  C   UNL     1       6.433   2.595 -22.675  0.00  0.00    +0.277 C 
ENDBRANCH  17  22
ENDBRANCH   1  14
BRANCH   7  24
ATOM     24  O   UNL     1      -3.378   3.682 -25.958  0.00  0.00    -0.491 OA
ATOM     25  C   UNL     1      -4.003   2.734 -26.592  0.00  0.00    +0.277 C 
ENDBRANCH   7  24
BRANCH   6  26
ATOM     26  O   UNL     1      -5.329   3.650 -24.239  0.00  0.00    -0.488 OA
ATOM     27  C   UNL     1      -5.817   4.820 -24.527  0.00  0.00    +0.277 C 
ENDBRANCH   6  26
BRANCH   5  28
ATOM     28  O   UNL     1      -4.821   3.403 -21.701  0.00  0.00    -0.488 OA
ATOM     29  C   UNL     1      -5.397   2.280 -21.393  0.00  0.00    +0.277 C 
ENDBRANCH   5  28
BRANCH   4  30
ATOM     30  O   UNL     1      -2.363   3.187 -20.882  0.00  0.00    -0.488 OA
ATOM     31  C   UNL     1      -2.699   4.134 -20.057  0.00  0.00    +0.277 C 
ENDBRANCH   4  30
BRANCH  11  32
ATOM     32  O   UNL     1       1.284   3.374 -25.589  0.00  0.00    -0.488 OA
ATOM     33  C   UNL     1       1.792   2.256 -26.016  0.00  0.00    +0.277 C 
ENDBRANCH  11  32
TORSDOF 9
ENDMDL
MODEL 5
REMARK VINA RESULT:    -6.759      1.043      3.110
REMARK INTER + INTRA:          -8.210
REMARK INTER:                 -10.474
REMARK INTRA:                   2.264
REMARK UNBOUND:                 2.105
REMARK  Name = ZINC000001649869
REMARK  17 active torsions:
REMARK  status: ('A' for Active; 'I' for Inactive)
REMARK    1  A    between atoms: C_1  and  O_2
REMARK    2  A    between atoms: O_2  and  C_3
REMARK    3  A    between atoms: C_5  and  C_6
REMARK    4  A    between atoms: C_9  and  O_10
REMARK    5  A    between atoms: O_10  and  C_11
REMARK    6  A    between atoms: C_12  and  O_13
REMARK    7  A    between atoms: O_13  and  C_14
REMARK    8  A    between atoms: C_15  and  O_16
REMARK    9  A    between atoms: O_16  and  C_17
REMARK   10  A    between atoms: C_18  and  O_19
REMARK   11  A    between atoms: O_19  and  C_20
REMARK   12  A    between atoms: C_24  and  O_25
REMARK   13  A    between atoms: O_25  and  C_26
REMARK   14  A    between atoms: C_28  and  O_29
REMARK   15  A    between atoms: O_29  and  C_30
REMARK   16  A    between atoms: C_31  and  O_32
REMARK   17  A    between atoms: O_32  and  C_33
REMARK                            x       y       z     vdW  Elec       q    Type
REMARK                         _______ _______ _______ _____ _____    ______ ____
ROOT
ATOM      1  C   UNL     1       0.439   3.391 -23.003  0.00  0.00    +0.181 A 
ATOM      2  O   UNL     1       1.203   2.407 -22.629  0.00  0.00    -0.447 OA
ATOM      3  C   UNL     1       2.491   2.570 -22.569  0.00  0.00    +0.188 A 
ATOM      4  C   UNL     1       3.254   1.587 -22.195  0.00  0.00    +0.209 A 
ATOM      5  C   UNL     1       4.543   1.750 -22.134  0.00  0.00    +0.211 A 
ATOM      6  C   UNL     1       5.068   2.897 -22.449  0.00  0.00    +0.208 A 
ATOM      7  C   UNL     1       4.304   3.881 -22.823  0.00  0.00    +0.180 A 
ATOM      8  C   UNL     1       3.016   3.718 -22.883  0.00  0.00    +0.117 A 
ATOM      9  C   UNL     1       2.253   4.701 -23.257  0.00  0.00    +0.238 A 
ATOM     10  O   UNL     1       2.778   5.848 -23.571  0.00  0.00    -0.283 OA
ATOM     11  C   UNL     1       0.964   4.538 -23.317  0.00  0.00    +0.211 A 
ENDROOT
BRANCH   1  14
ATOM     12  C   UNL     1      -2.847   3.095 -22.033  0.00  0.00    +0.166 A 
ATOM     13  C   UNL     1      -1.558   3.260 -21.974  0.00  0.00    +0.061 A 
ATOM     14  C   UNL     1      -0.849   3.227 -23.063  0.00  0.00    +0.028 A 
ATOM     15  C   UNL     1      -1.427   3.029 -24.210  0.00  0.00    +0.061 A 
ATOM     16  C   UNL     1      -2.715   2.865 -24.269  0.00  0.00    +0.166 A 
ATOM     17  C   UNL     1      -3.426   2.898 -23.180  0.00  0.00    +0.204 A 
BRANCH  16  18
ATOM     18  O   UNL     1      -3.294   2.668 -25.416  0.00  0.00    -0.491 OA
ATOM     19  C   UNL     1      -3.153   3.538 -26.373  0.00  0.00    +0.277 C 
ENDBRANCH  16  18
BRANCH  12  21
ATOM     20  C   UNL     1      -3.102   3.739 -19.891  0.00  0.00    +0.277 C 
ATOM     21  O   UNL     1      -3.557   3.128 -20.944  0.00  0.00    -0.491 OA
ENDBRANCH  12  21
BRANCH  17  22
ATOM     22  O   UNL     1      -4.714   2.734 -23.239  0.00  0.00    -0.488 OA
ATOM     23  C   UNL     1      -5.494   3.763 -23.385  0.00  0.00    +0.277 C 
ENDBRANCH  17  22
ENDBRANCH   1  14
BRANCH   7  24
ATOM     24  O   UNL     1       4.829   5.028 -23.137  0.00  0.00    -0.491 OA
ATOM     25  C   UNL     1       5.478   5.713 -22.243  0.00  0.00    +0.277 C 
ENDBRANCH   7  24
BRANCH   6  26
ATOM     26  O   UNL     1       6.356   3.061 -22.389  0.00  0.00    -0.488 OA
ATOM     27  C   UNL     1       7.087   2.849 -23.442  0.00  0.00    +0.277 C 
ENDBRANCH   6  26
BRANCH   5  28
ATOM     28  O   UNL     1       5.306   0.767 -21.760  0.00  0.00    -0.488 OA
ATOM     29  C   UNL     1       5.291   0.367 -20.523  0.00  0.00    +0.277 C 
ENDBRANCH   5  28
BRANCH   4  30
ATOM     30  O   UNL     1       2.729   0.440 -21.880  0.00  0.00    -0.488 OA
ATOM     31  C   UNL     1       2.237  -0.326 -22.808  0.00  0.00    +0.277 C 
ENDBRANCH   4  30
BRANCH  11  32
ATOM     32  O   UNL     1       0.201   5.521 -23.692  0.00  0.00    -0.488 OA
ATOM     33  C   UNL     1      -0.631   6.055 -22.847  0.00  0.00    +0.277 C 
ENDBRANCH  11  32
TORSDOF 9
ENDMDL
MODEL 6
REMARK VINA RESULT:    -6.707      1.051      3.744
REMARK INTER + INTRA:          -8.130
REMARK INTER:                 -10.434
REMARK INTRA:                   2.304
REMARK UNBOUND:                 2.105
REMARK  Name = ZINC000001649869
REMARK  17 active torsions:
REMARK  status: ('A' for Active; 'I' for Inactive)
REMARK    1  A    between atoms: C_1  and  O_2
REMARK    2  A    between atoms: O_2  and  C_3
REMARK    3  A    between atoms: C_5  and  C_6
REMARK    4  A    between atoms: C_9  and  O_10
REMARK    5  A    between atoms: O_10  and  C_11
REMARK    6  A    between atoms: C_12  and  O_13
REMARK    7  A    between atoms: O_13  and  C_14
REMARK    8  A    between atoms: C_15  and  O_16
REMARK    9  A    between atoms: O_16  and  C_17
REMARK   10  A    between atoms: C_18  and  O_19
REMARK   11  A    between atoms: O_19  and  C_20
REMARK   12  A    between atoms: C_24  and  O_25
REMARK   13  A    between atoms: O_25  and  C_26
REMARK   14  A    between atoms: C_28  and  O_29
REMARK   15  A    between atoms: O_29  and  C_30
REMARK   16  A    between atoms: C_31  and  O_32
REMARK   17  A    between atoms: O_32  and  C_33
REMARK                            x       y       z     vdW  Elec       q    Type
REMARK                         _______ _______ _______ _____ _____    ______ ____
ROOT
ATOM      1  C   UNL     1       0.428   3.445 -23.017  0.00  0.00    +0.181 A 
ATOM      2  O   UNL     1       1.208   2.464 -22.670  0.00  0.00    -0.447 OA
ATOM      3  C   UNL     1       2.494   2.644 -22.615  0.00  0.00    +0.188 A 
ATOM      4  C   UNL     1       3.273   1.663 -22.268  0.00  0.00    +0.209 A 
ATOM      5  C   UNL     1       4.560   1.842 -22.213  0.00  0.00    +0.211 A 
ATOM      6  C   UNL     1       5.067   3.003 -22.505  0.00  0.00    +0.208 A 
ATOM      7  C   UNL     1       4.287   3.984 -22.852  0.00  0.00    +0.180 A 
ATOM      8  C   UNL     1       3.001   3.805 -22.907  0.00  0.00    +0.117 A 
ATOM      9  C   UNL     1       2.222   4.786 -23.253  0.00  0.00    +0.238 A 
ATOM     10  O   UNL     1       2.729   5.947 -23.545  0.00  0.00    -0.283 OA
ATOM     11  C   UNL     1       0.935   4.606 -23.309  0.00  0.00    +0.211 A 
ENDROOT
BRANCH   1  14
ATOM     12  C   UNL     1      -2.725   2.894 -24.275  0.00  0.00    +0.166 A 
ATOM     13  C   UNL     1      -1.438   3.075 -24.219  0.00  0.00    +0.061 A 
ATOM     14  C   UNL     1      -0.858   3.265 -23.072  0.00  0.00    +0.028 A 
ATOM     15  C   UNL     1      -1.564   3.274 -21.980  0.00  0.00    +0.061 A 
ATOM     16  C   UNL     1      -2.850   3.094 -22.035  0.00  0.00    +0.166 A 
ATOM     17  C   UNL     1      -3.431   2.903 -23.183  0.00  0.00    +0.204 A 
BRANCH  16  18
ATOM     18  O   UNL     1      -3.555   3.103 -20.944  0.00  0.00    -0.491 OA
ATOM     19  C   UNL     1      -3.140   3.770 -19.907  0.00  0.00    +0.277 C 
ENDBRANCH  16  18
BRANCH  12  21
ATOM     20  C   UNL     1      -3.106   3.539 -26.398  0.00  0.00    +0.277 C 
ATOM     21  O   UNL     1      -3.305   2.704 -25.423  0.00  0.00    -0.491 OA
ENDBRANCH  12  21
BRANCH  17  22
ATOM     22  O   UNL     1      -4.716   2.723 -23.239  0.00  0.00    -0.488 OA
ATOM     23  C   UNL     1      -5.512   3.745 -23.350  0.00  0.00    +0.277 C 
ENDBRANCH  17  22
ENDBRANCH   1  14
BRANCH   7  24
ATOM     24  O   UNL     1       4.794   5.145 -23.143  0.00  0.00    -0.491 OA
ATOM     25  C   UNL     1       5.425   5.827 -22.234  0.00  0.00    +0.277 C 
ENDBRANCH   7  24
BRANCH   6  26
ATOM     26  O   UNL     1       6.353   3.183 -22.450  0.00  0.00    -0.488 OA
ATOM     27  C   UNL     1       7.077   3.023 -23.517  0.00  0.00    +0.277 C 
ENDBRANCH   6  26
BRANCH   5  28
ATOM     28  O   UNL     1       5.338   0.861 -21.866  0.00  0.00    -0.488 OA
ATOM     29  C   UNL     1       5.328   0.425 -20.642  0.00  0.00    +0.277 C 
ENDBRANCH   5  28
BRANCH   4  30
ATOM     30  O   UNL     1       2.766   0.502 -21.976  0.00  0.00    -0.488 OA
ATOM     31  C   UNL     1       2.290  -0.255 -22.919  0.00  0.00    +0.277 C 
ENDBRANCH   4  30
BRANCH  11  32
ATOM     32  O   UNL     1       0.156   5.587 -23.655  0.00  0.00    -0.488 OA
ATOM     33  C   UNL     1      -0.683   6.085 -22.796  0.00  0.00    +0.277 C 
ENDBRANCH  11  32
TORSDOF 9
ENDMDL
MODEL 7
REMARK VINA RESULT:    -5.978      2.051      4.294
REMARK INTER + INTRA:          -7.017
REMARK INTER:                  -9.015
REMARK INTRA:                   1.998
REMARK UNBOUND:                 2.105
REMARK  Name = ZINC000001649869
REMARK  17 active torsions:
REMARK  status: ('A' for Active; 'I' for Inactive)
REMARK    1  A    between atoms: C_1  and  O_2
REMARK    2  A    between atoms: O_2  and  C_3
REMARK    3  A    between atoms: C_5  and  C_6
REMARK    4  A    between atoms: C_9  and  O_10
REMARK    5  A    between atoms: O_10  and  C_11
REMARK    6  A    between atoms: C_12  and  O_13
REMARK    7  A    between atoms: O_13  and  C_14
REMARK    8  A    between atoms: C_15  and  O_16
REMARK    9  A    between atoms: O_16  and  C_17
REMARK   10  A    between atoms: C_18  and  O_19
REMARK   11  A    between atoms: O_19  and  C_20
REMARK   12  A    between atoms: C_24  and  O_25
REMARK   13  A    between atoms: O_25  and  C_26
REMARK   14  A    between atoms: C_28  and  O_29
REMARK   15  A    between atoms: O_29  and  C_30
REMARK   16  A    between atoms: C_31  and  O_32
REMARK   17  A    between atoms: O_32  and  C_33
REMARK                            x       y       z     vdW  Elec       q    Type
REMARK                         _______ _______ _______ _____ _____    ______ ____
ROOT
ATOM      1  C   UNL     1       3.451   4.074 -23.040  0.00  0.00    +0.181 A 
ATOM      2  O   UNL     1       3.780   5.225 -22.530  0.00  0.00    -0.447 OA
ATOM      3  C   UNL     1       5.007   5.645 -22.611  0.00  0.00    +0.188 A 
ATOM      4  C   UNL     1       5.335   6.795 -22.101  0.00  0.00    +0.209 A 
ATOM      5  C   UNL     1       6.563   7.215 -22.181  0.00  0.00    +0.211 A 
ATOM      6  C   UNL     1       7.462   6.485 -22.771  0.00  0.00    +0.208 A 
ATOM      7  C   UNL     1       7.134   5.334 -23.281  0.00  0.00    +0.180 A 
ATOM      8  C   UNL     1       5.906   4.915 -23.201  0.00  0.00    +0.117 A 
ATOM      9  C   UNL     1       5.579   3.765 -23.710  0.00  0.00    +0.238 A 
ATOM     10  O   UNL     1       6.478   3.035 -24.300  0.00  0.00    -0.283 OA
ATOM     11  C   UNL     1       4.351   3.344 -23.630  0.00  0.00    +0.211 A 
ENDROOT
BRANCH   1  14
ATOM     12  C   UNL     1       0.091   3.714 -23.683  0.00  0.00    +0.166 A 
ATOM     13  C   UNL     1       1.320   4.133 -23.763  0.00  0.00    +0.061 A 
ATOM     14  C   UNL     1       2.223   3.655 -22.959  0.00  0.00    +0.028 A 
ATOM     15  C   UNL     1       1.898   2.759 -22.075  0.00  0.00    +0.061 A 
ATOM     16  C   UNL     1       0.671   2.340 -21.995  0.00  0.00    +0.166 A 
ATOM     17  C   UNL     1      -0.233   2.818 -22.799  0.00  0.00    +0.204 A 
BRANCH  16  18
ATOM     18  O   UNL     1       0.346   1.444 -21.111  0.00  0.00    -0.491 OA
ATOM     19  C   UNL     1       1.149   1.186 -20.121  0.00  0.00    +0.277 C 
ENDBRANCH  16  18
BRANCH  12  21
ATOM     20  C   UNL     1      -1.168   3.517 -25.538  0.00  0.00    +0.277 C 
ATOM     21  O   UNL     1      -0.812   4.192 -24.486  0.00  0.00    -0.491 OA
ENDBRANCH  12  21
BRANCH  17  22
ATOM     22  O   UNL     1      -1.461   2.399 -22.719  0.00  0.00    -0.488 OA
ATOM     23  C   UNL     1      -2.291   2.973 -21.899  0.00  0.00    +0.277 C 
ENDBRANCH  17  22
ENDBRANCH   1  14
BRANCH   7  24
ATOM     24  O   UNL     1       8.033   4.604 -23.871  0.00  0.00    -0.491 OA
ATOM     25  C   UNL     1       9.061   4.173 -23.202  0.00  0.00    +0.277 C 
ENDBRANCH   7  24
BRANCH   6  26
ATOM     26  O   UNL     1       8.690   6.905 -22.852  0.00  0.00    -0.488 OA
ATOM     27  C   UNL     1       9.062   7.635 -23.861  0.00  0.00    +0.277 C 
ENDBRANCH   6  26
BRANCH   5  28
ATOM     28  O   UNL     1       6.891   8.365 -21.672  0.00  0.00    -0.488 OA
ATOM     29  C   UNL     1       7.551   8.416 -20.554  0.00  0.00    +0.277 C 
ENDBRANCH   5  28
BRANCH   4  30
ATOM     30  O   UNL     1       4.436   7.525 -21.511  0.00  0.00    -0.488 OA
ATOM     31  C   UNL     1       4.055   8.646 -22.047  0.00  0.00    +0.277 C 
ENDBRANCH   4  30
BRANCH  11  32
ATOM     32  O   UNL     1       4.023   2.194 -24.139  0.00  0.00    -0.488 OA
ATOM     33  C   UNL     1       4.287   1.098 -23.492  0.00  0.00    +0.277 C 
ENDBRANCH  11  32
TORSDOF 9
ENDMDL
MODEL 8
REMARK VINA RESULT:    -5.812      1.782      7.546
REMARK INTER + INTRA:          -6.764
REMARK INTER:                  -8.870
REMARK INTRA:                   2.105
REMARK UNBOUND:                 2.105
REMARK  Name = ZINC000001649869
REMARK  17 active torsions:
REMARK  status: ('A' for Active; 'I' for Inactive)
REMARK    1  A    between atoms: C_1  and  O_2
REMARK    2  A    between atoms: O_2  and  C_3
REMARK    3  A    between atoms: C_5  and  C_6
REMARK    4  A    between atoms: C_9  and  O_10
REMARK    5  A    between atoms: O_10  and  C_11
REMARK    6  A    between atoms: C_12  and  O_13
REMARK    7  A    between atoms: O_13  and  C_14
REMARK    8  A    between atoms: C_15  and  O_16
REMARK    9  A    between atoms: O_16  and  C_17
REMARK   10  A    between atoms: C_18  and  O_19
REMARK   11  A    between atoms: O_19  and  C_20
REMARK   12  A    between atoms: C_24  and  O_25
REMARK   13  A    between atoms: O_25  and  C_26
REMARK   14  A    between atoms: C_28  and  O_29
REMARK   15  A    between atoms: O_29  and  C_30
REMARK   16  A    between atoms: C_31  and  O_32
REMARK   17  A    between atoms: O_32  and  C_33
REMARK                            x       y       z     vdW  Elec       q    Type
REMARK                         _______ _______ _______ _____ _____    ______ ____
ROOT
ATOM      1  C   UNL     1       4.053   3.456 -22.892  0.00  0.00    +0.181 A 
ATOM      2  O   UNL     1       3.037   3.927 -23.553  0.00  0.00    -0.447 OA
ATOM      3  C   UNL     1       1.849   3.440 -23.353  0.00  0.00    +0.188 A 
ATOM      4  C   UNL     1       0.834   3.911 -24.014  0.00  0.00    +0.209 A 
ATOM      5  C   UNL     1      -0.355   3.423 -23.814  0.00  0.00    +0.211 A 
ATOM      6  C   UNL     1      -0.528   2.465 -22.953  0.00  0.00    +0.208 A 
ATOM      7  C   UNL     1       0.488   1.995 -22.291  0.00  0.00    +0.180 A 
ATOM      8  C   UNL     1       1.676   2.482 -22.491  0.00  0.00    +0.117 A 
ATOM      9  C   UNL     1       2.691   2.011 -21.830  0.00  0.00    +0.238 A 
ATOM     10  O   UNL     1       2.518   1.053 -20.969  0.00  0.00    -0.283 OA
ATOM     11  C   UNL     1       3.880   2.498 -22.030  0.00  0.00    +0.211 A 
ENDROOT
BRANCH   1  14
ATOM     12  C   UNL     1       6.811   5.497 -22.651  0.00  0.00    +0.166 A 
ATOM     13  C   UNL     1       5.623   5.008 -22.451  0.00  0.00    +0.061 A 
ATOM     14  C   UNL     1       5.241   3.944 -23.093  0.00  0.00    +0.028 A 
ATOM     15  C   UNL     1       6.047   3.369 -23.935  0.00  0.00    +0.061 A 
ATOM     16  C   UNL     1       7.235   3.857 -24.135  0.00  0.00    +0.166 A 
ATOM     17  C   UNL     1       7.617   4.922 -23.493  0.00  0.00    +0.204 A 
BRANCH  16  18
ATOM     18  O   UNL     1       8.041   3.282 -24.977  0.00  0.00    -0.491 OA
ATOM     19  C   UNL     1       8.942   2.448 -24.548  0.00  0.00    +0.277 C 
ENDBRANCH  16  18
BRANCH  12  21
ATOM     20  C   UNL     1       6.308   7.390 -21.541  0.00  0.00    +0.277 C 
ATOM     21  O   UNL     1       7.193   6.561 -22.009  0.00  0.00    -0.491 OA
ENDBRANCH  12  21
BRANCH  17  22
ATOM     22  O   UNL     1       8.805   5.410 -23.693  0.00  0.00    -0.488 OA
ATOM     23  C   UNL     1       8.988   6.321 -24.603  0.00  0.00    +0.277 C 
ENDBRANCH  17  22
ENDBRANCH   1  14
BRANCH   7  24
ATOM     24  O   UNL     1       0.315   1.037 -21.430  0.00  0.00    -0.491 OA
ATOM     25  C   UNL     1      -0.097   1.310 -20.227  0.00  0.00    +0.277 C 
ENDBRANCH   7  24
BRANCH   6  26
ATOM     26  O   UNL     1      -1.717   1.978 -22.753  0.00  0.00    -0.488 OA
ATOM     27  C   UNL     1      -2.564   2.619 -22.004  0.00  0.00    +0.277 C 
ENDBRANCH   6  26
BRANCH   5  28
ATOM     28  O   UNL     1      -1.371   3.894 -24.476  0.00  0.00    -0.488 OA
ATOM     29  C   UNL     1      -1.831   3.248 -25.505  0.00  0.00    +0.277 C 
ENDBRANCH   5  28
BRANCH   4  30
ATOM     30  O   UNL     1       1.007   4.869 -24.876  0.00  0.00    -0.488 OA
ATOM     31  C   UNL     1       1.291   4.587 -26.113  0.00  0.00    +0.277 C 
ENDBRANCH   4  30
BRANCH  11  32
ATOM     32  O   UNL     1       4.895   2.028 -21.369  0.00  0.00    -0.488 OA
ATOM     33  C   UNL     1       5.299   0.810 -21.580  0.00  0.00    +0.277 C 
ENDBRANCH  11  32
TORSDOF 9
ENDMDL
MODEL 9
REMARK VINA RESULT:    -5.741      2.644      5.296
REMARK INTER + INTRA:          -6.656
REMARK INTER:                 -10.692
REMARK INTRA:                   4.036
REMARK UNBOUND:                 2.105
REMARK  Name = ZINC000001649869
REMARK  17 active torsions:
REMARK  status: ('A' for Active; 'I' for Inactive)
REMARK    1  A    between atoms: C_1  and  O_2
REMARK    2  A    between atoms: O_2  and  C_3
REMARK    3  A    between atoms: C_5  and  C_6
REMARK    4  A    between atoms: C_9  and  O_10
REMARK    5  A    between atoms: O_10  and  C_11
REMARK    6  A    between atoms: C_12  and  O_13
REMARK    7  A    between atoms: O_13  and  C_14
REMARK    8  A    between atoms: C_15  and  O_16
REMARK    9  A    between atoms: O_16  and  C_17
REMARK   10  A    between atoms: C_18  and  O_19
REMARK   11  A    between atoms: O_19  and  C_20
REMARK   12  A    between atoms: C_24  and  O_25
REMARK   13  A    between atoms: O_25  and  C_26
REMARK   14  A    between atoms: C_28  and  O_29
REMARK   15  A    between atoms: O_29  and  C_30
REMARK   16  A    between atoms: C_31  and  O_32
REMARK   17  A    between atoms: O_32  and  C_33
REMARK                            x       y       z     vdW  Elec       q    Type
REMARK                         _______ _______ _______ _____ _____    ______ ____
ROOT
ATOM      1  C   UNL     1       4.237   5.032 -22.850  0.00  0.00    +0.181 A 
ATOM      2  O   UNL     1       4.275   6.258 -22.418  0.00  0.00    -0.447 OA
ATOM      3  C   UNL     1       5.394   6.761 -21.988  0.00  0.00    +0.188 A 
ATOM      4  C   UNL     1       5.432   7.986 -21.556  0.00  0.00    +0.209 A 
ATOM      5  C   UNL     1       6.551   8.490 -21.126  0.00  0.00    +0.211 A 
ATOM      6  C   UNL     1       7.632   7.768 -21.129  0.00  0.00    +0.208 A 
ATOM      7  C   UNL     1       7.593   6.542 -21.561  0.00  0.00    +0.180 A 
ATOM      8  C   UNL     1       6.475   6.039 -21.991  0.00  0.00    +0.117 A 
ATOM      9  C   UNL     1       6.437   4.814 -22.423  0.00  0.00    +0.238 A 
ATOM     10  O   UNL     1       7.518   4.091 -22.425  0.00  0.00    -0.283 OA
ATOM     11  C   UNL     1       5.317   4.310 -22.853  0.00  0.00    +0.211 A 
ENDROOT
BRANCH   1  14
ATOM     12  C   UNL     1       1.977   2.831 -24.221  0.00  0.00    +0.166 A 
ATOM     13  C   UNL     1       3.096   3.335 -23.791  0.00  0.00    +0.061 A 
ATOM     14  C   UNL     1       3.117   4.530 -23.280  0.00  0.00    +0.028 A 
ATOM     15  C   UNL     1       2.019   5.221 -23.198  0.00  0.00    +0.061 A 
ATOM     16  C   UNL     1       0.901   4.718 -23.627  0.00  0.00    +0.166 A 
ATOM     17  C   UNL     1       0.879   3.523 -24.139  0.00  0.00    +0.204 A 
BRANCH  16  18
ATOM     18  O   UNL     1      -0.197   5.410 -23.545  0.00  0.00    -0.491 OA
ATOM     19  C   UNL     1      -0.969   5.284 -22.506  0.00  0.00    +0.277 C 
ENDBRANCH  16  18
BRANCH  12  21
ATOM     20  C   UNL     1       3.055   0.949 -24.822  0.00  0.00    +0.277 C 
ATOM     21  O   UNL     1       1.956   1.636 -24.733  0.00  0.00    -0.491 OA
ENDBRANCH  12  21
BRANCH  17  22
ATOM     22  O   UNL     1      -0.240   3.020 -24.569  0.00  0.00    -0.488 OA
ATOM     23  C   UNL     1      -0.786   3.482 -25.654  0.00  0.00    +0.277 C 
ENDBRANCH  17  22
ENDBRANCH   1  14
BRANCH   7  24
ATOM     24  O   UNL     1       8.674   5.820 -21.564  0.00  0.00    -0.491 OA
ATOM     25  C   UNL     1       9.062   5.227 -20.474  0.00  0.00    +0.277 C 
ENDBRANCH   7  24
BRANCH   6  26
ATOM     26  O   UNL     1       8.750   8.271 -20.699  0.00  0.00    -0.488 OA
ATOM     27  C   UNL     1       9.024   8.255 -19.429  0.00  0.00    +0.277 C 
ENDBRANCH   6  26
BRANCH   5  28
ATOM     28  O   UNL     1       6.589   9.715 -20.694  0.00  0.00    -0.488 OA
ATOM     29  C   UNL     1       7.014  10.666 -21.472  0.00  0.00    +0.277 C 
ENDBRANCH   5  28
BRANCH   4  30
ATOM     30  O   UNL     1       4.351   8.709 -21.554  0.00  0.00    -0.488 OA
ATOM     31  C   UNL     1       4.088   9.490 -22.559  0.00  0.00    +0.277 C 
ENDBRANCH   4  30
BRANCH  11  32
ATOM     32  O   UNL     1       5.280   3.084 -23.285  0.00  0.00    -0.488 OA
ATOM     33  C   UNL     1       5.586   2.105 -22.486  0.00  0.00    +0.277 C 
ENDBRANCH  11  32
TORSDOF 9
ENDMDL
