MODEL 1
REMARK VINA RESULT:   -13.653      0.000      0.000
REMARK INTER + INTRA:          -8.211
REMARK INTER:                 -10.982
REMARK INTRA:                   2.770
REMARK UNBOUND:                 7.837
REMARK  Name = COC1=CC=C2[C@@H]3Cc4ccc(OC)c(Oc5ccccc5)c4[C@@]2(CCN3C)C1             ZINC000100393783
REMARK  7 active torsions:
REMARK  status: ('A' for Active; 'I' for Inactive)
REMARK    1  A    between atoms: C_1  and  O_2
REMARK    2  A    between atoms: O_2  and  C_3
REMARK    3  A    between atoms: C_12  and  O_13
REMARK    4  A    between atoms: O_13  and  C_14
REMARK    5  A    between atoms: C_15  and  O_16
REMARK    6  A    between atoms: O_16  and  C_17
REMARK    7  A    between atoms: N_27  and  C_28
REMARK                            x       y       z     vdW  Elec       q    Type
REMARK                         _______ _______ _______ _____ _____    ______ ____
ROOT
ATOM      1  C   UNL     1      -2.937   2.847 -22.176  0.00  0.00    +0.098 C 
ATOM      2  C   UNL     1      -3.973   3.015 -22.609  0.00  0.00    +0.041 C 
ATOM      3  C   UNL     1      -4.057   3.211 -23.608  0.00  0.00    +0.009 C 
ATOM      4  C   UNL     1      -2.818   3.288 -24.568  0.00  0.00    -0.011 C 
ATOM      5  C   UNL     1      -3.494   3.454 -25.145  0.00  0.00    +0.096 C 
ATOM      6  C   UNL     1      -4.170   3.370 -24.402  0.00  0.00    +0.094 C 
ATOM      7  C   UNL     1      -3.246   3.056 -23.149  0.00  0.00    -0.034 A 
ATOM      8  C   UNL     1      -3.340   2.757 -21.523  0.00  0.00    +0.008 A 
ATOM      9  C   UNL     1      -2.245   2.538 -20.849  0.00  0.00    +0.050 A 
ATOM     10  C   UNL     1      -1.068   2.553 -21.453  0.00  0.00    +0.162 A 
ATOM     11  C   UNL     1      -0.964   2.788 -22.744  0.00  0.00    +0.174 A 
ATOM     12  C   UNL     1      -2.084   3.029 -23.523  0.00  0.00    +0.013 A 
ATOM     13  N   UNL     1      -3.073   3.649 -26.368  0.00  0.00    +0.239 N 
ATOM     14  H   UNL     1      -4.089   3.742 -26.407  0.00  0.00    +0.204 HD
ATOM     15  C   UNL     1      -3.772   3.898 -27.373  0.00  0.00    +0.191 C 
ATOM     16  C   UNL     1      -1.732   3.569 -26.539  0.00  0.00    +0.133 C 
ATOM     17  C   UNL     1      -1.031   3.305 -25.452  0.00  0.00    +0.067 C 
ATOM     18  C   UNL     1      -1.727   3.166 -24.406  0.00  0.00    +0.038 C 
ATOM     19  C   UNL     1      -1.701   2.885 -22.929  0.00  0.00    +0.090 C 
ENDROOT
BRANCH   1  21
ATOM     20  C   UNL     1      -6.255   3.020 -21.950  0.00  0.00    +0.276 C 
ATOM     21  O   UNL     1      -5.088   3.018 -22.129  0.00  0.00    -0.499 OA
ENDBRANCH   1  21
BRANCH  10  22
ATOM     22  O   UNL     1       0.109   2.335 -20.821  0.00  0.00    -0.491 OA
ATOM     23  C   UNL     1       0.551   1.176 -20.518  0.00  0.00    +0.277 C 
ENDBRANCH  10  22
BRANCH  11  24
ATOM     24  O   UNL     1       0.107   2.806 -23.316  0.00  0.00    -0.452 OA
BRANCH  24  25
ATOM     25  C   UNL     1       1.111   2.698 -23.627  0.00  0.00    +0.129 A 
ATOM     26  C   UNL     1       1.513   3.863 -23.268  0.00  0.00    +0.046 A 
ATOM     27  C   UNL     1       2.735   4.208 -23.455  0.00  0.00    +0.004 A 
ATOM     28  C   UNL     1       3.558   3.385 -24.003  0.00  0.00    +0.000 A 
ATOM     29  C   UNL     1       3.161   2.218 -24.364  0.00  0.00    +0.004 A 
ATOM     30  C   UNL     1       1.936   1.875 -24.175  0.00  0.00    +0.046 A 
ENDBRANCH  24  25
ENDBRANCH  11  24
TORSDOF 4
ENDMDL
MODEL 2
REMARK VINA RESULT:   -13.116      1.928      3.642
REMARK INTER + INTRA:          -7.580
REMARK INTER:                 -10.648
REMARK INTRA:                   3.068
REMARK UNBOUND:                 7.837
REMARK  Name = COC1=CC=C2[C@@H]3Cc4ccc(OC)c(Oc5ccccc5)c4[C@@]2(CCN3C)C1             ZINC000100393783
REMARK  7 active torsions:
REMARK  status: ('A' for Active; 'I' for Inactive)
REMARK    1  A    between atoms: C_1  and  O_2
REMARK    2  A    between atoms: O_2  and  C_3
REMARK    3  A    between atoms: C_12  and  O_13
REMARK    4  A    between atoms: O_13  and  C_14
REMARK    5  A    between atoms: C_15  and  O_16
REMARK    6  A    between atoms: O_16  and  C_17
REMARK    7  A    between atoms: N_27  and  C_28
REMARK                            x       y       z     vdW  Elec       q    Type
REMARK                         _______ _______ _______ _____ _____    ______ ____
ROOT
ATOM      1  C   UNL     1      -1.411   3.445 -24.863  0.00  0.00    +0.098 C 
ATOM      2  C   UNL     1      -2.517   3.665 -24.731  0.00  0.00    +0.041 C 
ATOM      3  C   UNL     1      -2.961   3.417 -23.846  0.00  0.00    +0.009 C 
ATOM      4  C   UNL     1      -2.181   2.744 -22.662  0.00  0.00    -0.011 C 
ATOM      5  C   UNL     1      -3.012   2.807 -22.308  0.00  0.00    +0.096 C 
ATOM      6  C   UNL     1      -3.356   3.234 -23.154  0.00  0.00    +0.094 C 
ATOM      7  C   UNL     1      -2.050   3.277 -24.058  0.00  0.00    -0.034 A 
ATOM      8  C   UNL     1      -1.538   3.758 -25.557  0.00  0.00    +0.008 A 
ATOM      9  C   UNL     1      -0.290   3.584 -25.892  0.00  0.00    +0.050 A 
ATOM     10  C   UNL     1       0.563   3.031 -25.047  0.00  0.00    +0.162 A 
ATOM     11  C   UNL     1       0.184   2.639 -23.848  0.00  0.00    +0.174 A 
ATOM     12  C   UNL     1      -1.126   2.792 -23.425  0.00  0.00    +0.013 A 
ATOM     13  N   UNL     1      -3.077   2.331 -21.092  0.00  0.00    +0.239 N 
ATOM     14  H   UNL     1      -4.019   2.653 -21.313  0.00  0.00    +0.204 HD
ATOM     15  C   UNL     1      -4.085   2.282 -20.357  0.00  0.00    +0.191 C 
ATOM     16  C   UNL     1      -1.914   1.843 -20.598  0.00  0.00    +0.133 C 
ATOM     17  C   UNL     1      -0.874   1.913 -21.408  0.00  0.00    +0.067 C 
ATOM     18  C   UNL     1      -1.124   2.431 -22.533  0.00  0.00    +0.038 C 
ATOM     19  C   UNL     1      -0.558   2.830 -23.867  0.00  0.00    +0.090 C 
ENDROOT
BRANCH   1  21
ATOM     20  C   UNL     1      -4.379   4.506 -25.936  0.00  0.00    +0.276 C 
ATOM     21  O   UNL     1      -3.359   4.164 -25.450  0.00  0.00    -0.499 OA
ENDBRANCH   1  21
BRANCH  10  22
ATOM     22  O   UNL     1       1.872   2.818 -25.323  0.00  0.00    -0.491 OA
ATOM     23  C   UNL     1       2.316   1.774 -25.906  0.00  0.00    +0.277 C 
ENDBRANCH  10  22
BRANCH  11  24
ATOM     24  O   UNL     1       0.952   2.129 -23.059  0.00  0.00    -0.452 OA
BRANCH  24  25
ATOM     25  C   UNL     1       1.759   1.663 -22.560  0.00  0.00    +0.129 A 
ATOM     26  C   UNL     1       2.441   2.727 -22.335  0.00  0.00    +0.046 A 
ATOM     27  C   UNL     1       3.564   2.654 -21.719  0.00  0.00    +0.004 A 
ATOM     28  C   UNL     1       4.008   1.512 -21.327  0.00  0.00    +0.000 A 
ATOM     29  C   UNL     1       3.330   0.443 -21.550  0.00  0.00    +0.004 A 
ATOM     30  C   UNL     1       2.205   0.521 -22.168  0.00  0.00    +0.046 A 
ENDBRANCH  24  25
ENDBRANCH  11  24
TORSDOF 4
ENDMDL
MODEL 3
REMARK VINA RESULT:   -13.039      1.698      2.572
REMARK INTER + INTRA:          -7.489
REMARK INTER:                 -10.652
REMARK INTRA:                   3.163
REMARK UNBOUND:                 7.837
REMARK  Name = COC1=CC=C2[C@@H]3Cc4ccc(OC)c(Oc5ccccc5)c4[C@@]2(CCN3C)C1             ZINC000100393783
REMARK  7 active torsions:
REMARK  status: ('A' for Active; 'I' for Inactive)
REMARK    1  A    between atoms: C_1  and  O_2
REMARK    2  A    between atoms: O_2  and  C_3
REMARK    3  A    between atoms: C_12  and  O_13
REMARK    4  A    between atoms: O_13  and  C_14
REMARK    5  A    between atoms: C_15  and  O_16
REMARK    6  A    between atoms: O_16  and  C_17
REMARK    7  A    between atoms: N_27  and  C_28
REMARK                            x       y       z     vdW  Elec       q    Type
REMARK                         _______ _______ _______ _____ _____    ______ ____
ROOT
ATOM      1  C   UNL     1      -0.374   1.952 -21.644  0.00  0.00    +0.098 C 
ATOM      2  C   UNL     1      -1.454   2.060 -21.978  0.00  0.00    +0.041 C 
ATOM      3  C   UNL     1      -1.640   2.419 -22.915  0.00  0.00    +0.009 C 
ATOM      4  C   UNL     1      -0.499   2.828 -23.912  0.00  0.00    -0.011 C 
ATOM      5  C   UNL     1      -1.234   3.006 -24.409  0.00  0.00    +0.096 C 
ATOM      6  C   UNL     1      -1.834   2.703 -23.658  0.00  0.00    +0.094 C 
ATOM      7  C   UNL     1      -0.782   2.291 -22.541  0.00  0.00    -0.034 A 
ATOM      8  C   UNL     1      -0.710   1.695 -20.997  0.00  0.00    +0.008 A 
ATOM      9  C   UNL     1       0.453   1.503 -20.440  0.00  0.00    +0.050 A 
ATOM     10  C   UNL     1       1.568   1.779 -21.095  0.00  0.00    +0.162 A 
ATOM     11  C   UNL     1       1.541   2.254 -22.324  0.00  0.00    +0.174 A 
ATOM     12  C   UNL     1       0.341   2.483 -22.978  0.00  0.00    +0.013 A 
ATOM     13  N   UNL     1      -0.938   3.471 -25.595  0.00  0.00    +0.239 N 
ATOM     14  H   UNL     1      -1.957   3.436 -25.558  0.00  0.00    +0.204 HD
ATOM     15  C   UNL     1      -1.739   3.803 -26.494  0.00  0.00    +0.191 C 
ATOM     16  C   UNL     1       0.386   3.598 -25.853  0.00  0.00    +0.133 C 
ATOM     17  C   UNL     1       1.197   3.236 -24.877  0.00  0.00    +0.067 C 
ATOM     18  C   UNL     1       0.609   2.822 -23.838  0.00  0.00    +0.038 C 
ATOM     19  C   UNL     1       0.785   2.286 -22.445  0.00  0.00    +0.090 C 
ENDROOT
BRANCH   1  21
ATOM     20  C   UNL     1      -3.668   1.828 -21.168  0.00  0.00    +0.276 C 
ATOM     21  O   UNL     1      -2.519   1.831 -21.443  0.00  0.00    -0.499 OA
ENDBRANCH   1  21
BRANCH  10  22
ATOM     22  O   UNL     1       2.810   1.606 -20.584  0.00  0.00    -0.491 OA
ATOM     23  C   UNL     1       3.458   0.509 -20.643  0.00  0.00    +0.277 C 
ENDBRANCH  10  22
BRANCH  11  24
ATOM     24  O   UNL     1       2.552   2.514 -22.942  0.00  0.00    -0.452 OA
BRANCH  24  25
ATOM     25  C   UNL     1       3.535   2.732 -23.267  0.00  0.00    +0.129 A 
ATOM     26  C   UNL     1       3.581   3.938 -22.832  0.00  0.00    +0.046 A 
ATOM     27  C   UNL     1       4.638   4.645 -23.004  0.00  0.00    +0.004 A 
ATOM     28  C   UNL     1       5.653   4.143 -23.613  0.00  0.00    +0.000 A 
ATOM     29  C   UNL     1       5.613   2.935 -24.050  0.00  0.00    +0.004 A 
ATOM     30  C   UNL     1       4.552   2.231 -23.876  0.00  0.00    +0.046 A 
ENDBRANCH  24  25
ENDBRANCH  11  24
TORSDOF 4
ENDMDL
MODEL 4
REMARK VINA RESULT:   -11.598      2.287      6.456
REMARK INTER + INTRA:          -5.795
REMARK INTER:                  -9.536
REMARK INTRA:                   3.741
REMARK UNBOUND:                 7.837
REMARK  Name = COC1=CC=C2[C@@H]3Cc4ccc(OC)c(Oc5ccccc5)c4[C@@]2(CCN3C)C1             ZINC000100393783
REMARK  7 active torsions:
REMARK  status: ('A' for Active; 'I' for Inactive)
REMARK    1  A    between atoms: C_1  and  O_2
REMARK    2  A    between atoms: O_2  and  C_3
REMARK    3  A    between atoms: C_12  and  O_13
REMARK    4  A    between atoms: O_13  and  C_14
REMARK    5  A    between atoms: C_15  and  O_16
REMARK    6  A    between atoms: O_16  and  C_17
REMARK    7  A    between atoms: N_27  and  C_28
REMARK                            x       y       z     vdW  Elec       q    Type
REMARK                         _______ _______ _______ _____ _____    ______ ____
ROOT
ATOM      1  C   UNL     1       1.937   3.476 -23.861  0.00  0.00    +0.098 C 
ATOM      2  C   UNL     1       2.998   3.194 -23.571  0.00  0.00    +0.041 C 
ATOM      3  C   UNL     1       3.140   2.633 -22.729  0.00  0.00    +0.009 C 
ATOM      4  C   UNL     1       1.957   2.146 -21.822  0.00  0.00    -0.011 C 
ATOM      5  C   UNL     1       2.666   1.796 -21.382  0.00  0.00    +0.096 C 
ATOM      6  C   UNL     1       3.299   2.185 -22.063  0.00  0.00    +0.094 C 
ATOM      7  C   UNL     1       2.302   2.921 -23.058  0.00  0.00    -0.034 A 
ATOM      8  C   UNL     1       2.302   3.825 -24.445  0.00  0.00    +0.008 A 
ATOM      9  C   UNL     1       1.169   4.244 -24.935  0.00  0.00    +0.050 A 
ATOM     10  C   UNL     1       0.027   3.953 -24.334  0.00  0.00    +0.162 A 
ATOM     11  C   UNL     1      -0.003   3.236 -23.229  0.00  0.00    +0.174 A 
ATOM     12  C   UNL     1       1.163   2.758 -22.653  0.00  0.00    +0.013 A 
ATOM     13  N   UNL     1       2.316   1.130 -20.312  0.00  0.00    +0.239 N 
ATOM     14  H   UNL     1       3.334   1.069 -20.355  0.00  0.00    +0.204 HD
ATOM     15  C   UNL     1       3.073   0.542 -19.512  0.00  0.00    +0.191 C 
ATOM     16  C   UNL     1       0.985   1.088 -20.067  0.00  0.00    +0.133 C 
ATOM     17  C   UNL     1       0.222   1.722 -20.937  0.00  0.00    +0.067 C 
ATOM     18  C   UNL     1       0.856   2.279 -21.877  0.00  0.00    +0.038 C 
ATOM     19  C   UNL     1       0.745   3.104 -23.128  0.00  0.00    +0.090 C 
ENDROOT
BRANCH   1  21
ATOM     20  C   UNL     1       5.261   3.318 -24.009  0.00  0.00    +0.276 C 
ATOM     21  O   UNL     1       4.085   3.418 -24.063  0.00  0.00    -0.499 OA
ENDBRANCH   1  21
BRANCH  10  22
ATOM     22  O   UNL     1      -1.187   4.352 -24.782  0.00  0.00    -0.491 OA
ATOM     23  C   UNL     1      -1.868   3.718 -25.655  0.00  0.00    +0.277 C 
ENDBRANCH  10  22
BRANCH  11  24
ATOM     24  O   UNL     1      -1.040   2.959 -22.663  0.00  0.00    -0.452 OA
BRANCH  24  25
ATOM     25  C   UNL     1      -2.023   2.913 -22.276  0.00  0.00    +0.129 A 
ATOM     26  C   UNL     1      -1.946   3.954 -21.529  0.00  0.00    +0.046 A 
ATOM     27  C   UNL     1      -2.955   4.316 -20.824  0.00  0.00    +0.004 A 
ATOM     28  C   UNL     1      -4.045   3.635 -20.866  0.00  0.00    +0.000 A 
ATOM     29  C   UNL     1      -4.128   2.592 -21.612  0.00  0.00    +0.004 A 
ATOM     30  C   UNL     1      -3.115   2.232 -22.317  0.00  0.00    +0.046 A 
ENDBRANCH  24  25
ENDBRANCH  11  24
TORSDOF 4
ENDMDL
MODEL 5
REMARK VINA RESULT:   -11.115      3.323      6.069
REMARK INTER + INTRA:          -5.227
REMARK INTER:                  -7.848
REMARK INTRA:                   2.621
REMARK UNBOUND:                 7.837
REMARK  Name = COC1=CC=C2[C@@H]3Cc4ccc(OC)c(Oc5ccccc5)c4[C@@]2(CCN3C)C1             ZINC000100393783
REMARK  7 active torsions:
REMARK  status: ('A' for Active; 'I' for Inactive)
REMARK    1  A    between atoms: C_1  and  O_2
REMARK    2  A    between atoms: O_2  and  C_3
REMARK    3  A    between atoms: C_12  and  O_13
REMARK    4  A    between atoms: O_13  and  C_14
REMARK    5  A    between atoms: C_15  and  O_16
REMARK    6  A    between atoms: O_16  and  C_17
REMARK    7  A    between atoms: N_27  and  C_28
REMARK                            x       y       z     vdW  Elec       q    Type
REMARK                         _______ _______ _______ _____ _____    ______ ____
ROOT
ATOM      1  C   UNL     1       2.000   4.939 -23.505  0.00  0.00    +0.098 C 
ATOM      2  C   UNL     1       1.234   4.265 -24.002  0.00  0.00    +0.041 C 
ATOM      3  C   UNL     1       1.521   3.327 -24.287  0.00  0.00    +0.009 C 
ATOM      4  C   UNL     1       2.975   2.779 -24.067  0.00  0.00    -0.011 C 
ATOM      5  C   UNL     1       2.582   2.069 -24.467  0.00  0.00    +0.096 C 
ATOM      6  C   UNL     1       1.709   2.569 -24.531  0.00  0.00    +0.094 C 
ATOM      7  C   UNL     1       2.078   3.965 -23.867  0.00  0.00    -0.034 A 
ATOM      8  C   UNL     1       1.404   5.429 -23.490  0.00  0.00    +0.008 A 
ATOM      9  C   UNL     1       2.136   6.339 -22.909  0.00  0.00    +0.050 A 
ATOM     10  C   UNL     1       3.405   6.101 -22.622  0.00  0.00    +0.162 A 
ATOM     11  C   UNL     1       3.967   4.945 -22.911  0.00  0.00    +0.174 A 
ATOM     12  C   UNL     1       3.250   3.933 -23.527  0.00  0.00    +0.013 A 
ATOM     13  N   UNL     1       3.401   1.061 -24.619  0.00  0.00    +0.239 N 
ATOM     14  H   UNL     1       2.509   0.754 -25.009  0.00  0.00    +0.204 HD
ATOM     15  C   UNL     1       3.142  -0.046 -25.136  0.00  0.00    +0.191 C 
ATOM     16  C   UNL     1       4.659   1.263 -24.161  0.00  0.00    +0.133 C 
ATOM     17  C   UNL     1       4.889   2.447 -23.623  0.00  0.00    +0.067 C 
ATOM     18  C   UNL     1       3.890   3.219 -23.618  0.00  0.00    +0.038 C 
ATOM     19  C   UNL     1       3.377   4.579 -23.233  0.00  0.00    +0.090 C 
ENDROOT
BRANCH   1  21
ATOM     20  C   UNL     1      -1.044   4.283 -24.686  0.00  0.00    +0.276 C 
ATOM     21  O   UNL     1       0.065   4.407 -24.297  0.00  0.00    -0.499 OA
ENDBRANCH   1  21
BRANCH  10  22
ATOM     22  O   UNL     1       4.226   6.994 -22.022  0.00  0.00    -0.491 OA
ATOM     23  C   UNL     1       4.107   8.260 -22.136  0.00  0.00    +0.277 C 
ENDBRANCH  10  22
BRANCH  11  24
ATOM     24  O   UNL     1       5.130   4.707 -22.656  0.00  0.00    -0.452 OA
BRANCH  24  25
ATOM     25  C   UNL     1       6.126   4.696 -22.304  0.00  0.00    +0.129 A 
ATOM     26  C   UNL     1       6.674   5.161 -23.367  0.00  0.00    +0.046 A 
ATOM     27  C   UNL     1       7.945   5.333 -23.415  0.00  0.00    +0.004 A 
ATOM     28  C   UNL     1       8.671   5.039 -22.395  0.00  0.00    +0.000 A 
ATOM     29  C   UNL     1       8.128   4.574 -21.327  0.00  0.00    +0.004 A 
ATOM     30  C   UNL     1       6.854   4.403 -21.283  0.00  0.00    +0.046 A 
ENDBRANCH  24  25
ENDBRANCH  11  24
TORSDOF 4
ENDMDL
MODEL 6
REMARK VINA RESULT:   -10.771      3.250      4.990
REMARK INTER + INTRA:          -4.823
REMARK INTER:                  -7.775
REMARK INTRA:                   2.952
REMARK UNBOUND:                 7.837
REMARK  Name = COC1=CC=C2[C@@H]3Cc4ccc(OC)c(Oc5ccccc5)c4[C@@]2(CCN3C)C1             ZINC000100393783
REMARK  7 active torsions:
REMARK  status: ('A' for Active; 'I' for Inactive)
REMARK    1  A    between atoms: C_1  and  O_2
REMARK    2  A    between atoms: O_2  and  C_3
REMARK    3  A    between atoms: C_12  and  O_13
REMARK    4  A    between atoms: O_13  and  C_14
REMARK    5  A    between atoms: C_15  and  O_16
REMARK    6  A    between atoms: O_16  and  C_17
REMARK    7  A    between atoms: N_27  and  C_28
REMARK                            x       y       z     vdW  Elec       q    Type
REMARK                         _______ _______ _______ _____ _____    ______ ____
ROOT
ATOM      1  C   UNL     1       1.966   1.423 -22.123  0.00  0.00    +0.098 C 
ATOM      2  C   UNL     1       0.841   1.557 -22.196  0.00  0.00    +0.041 C 
ATOM      3  C   UNL     1       0.477   2.460 -22.503  0.00  0.00    +0.009 C 
ATOM      4  C   UNL     1       1.404   3.668 -22.878  0.00  0.00    -0.011 C 
ATOM      5  C   UNL     1       0.586   4.029 -23.018  0.00  0.00    +0.096 C 
ATOM      6  C   UNL     1       0.142   3.166 -22.744  0.00  0.00    +0.094 C 
ATOM      7  C   UNL     1       1.392   2.244 -22.409  0.00  0.00    -0.034 A 
ATOM      8  C   UNL     1       1.762   0.714 -21.895  0.00  0.00    +0.008 A 
ATOM      9  C   UNL     1       3.012   0.373 -21.751  0.00  0.00    +0.050 A 
ATOM     10  C   UNL     1       3.980   1.236 -22.011  0.00  0.00    +0.162 A 
ATOM     11  C   UNL     1       3.715   2.459 -22.422  0.00  0.00    +0.174 A 
ATOM     12  C   UNL     1       2.410   2.890 -22.596  0.00  0.00    +0.013 A 
ATOM     13  N   UNL     1       0.647   5.270 -23.426  0.00  0.00    +0.239 N 
ATOM     14  H   UNL     1      -0.347   5.044 -23.376  0.00  0.00    +0.204 HD
ATOM     15  C   UNL     1      -0.314   6.020 -23.698  0.00  0.00    +0.191 C 
ATOM     16  C   UNL     1       1.896   5.774 -23.561  0.00  0.00    +0.133 C 
ATOM     17  C   UNL     1       2.883   4.949 -23.264  0.00  0.00    +0.067 C 
ATOM     18  C   UNL     1       2.506   3.801 -22.895  0.00  0.00    +0.038 C 
ATOM     19  C   UNL     1       2.950   2.440 -22.434  0.00  0.00    +0.090 C 
ENDROOT
BRANCH   1  21
ATOM     20  C   UNL     1      -1.222   0.547 -21.726  0.00  0.00    +0.276 C 
ATOM     21  O   UNL     1      -0.102   0.823 -21.977  0.00  0.00    -0.499 OA
ENDBRANCH   1  21
BRANCH  10  22
ATOM     22  O   UNL     1       5.299   0.955 -21.886  0.00  0.00    -0.491 OA
ATOM     23  C   UNL     1       5.778   0.171 -21.000  0.00  0.00    +0.277 C 
ENDBRANCH  10  22
BRANCH  11  24
ATOM     24  O   UNL     1       4.589   3.265 -22.666  0.00  0.00    -0.452 OA
BRANCH  24  25
ATOM     25  C   UNL     1       5.460   3.863 -22.698  0.00  0.00    +0.129 A 
ATOM     26  C   UNL     1       5.977   3.331 -23.745  0.00  0.00    +0.046 A 
ATOM     27  C   UNL     1       7.104   3.753 -24.193  0.00  0.00    +0.004 A 
ATOM     28  C   UNL     1       7.715   4.711 -23.591  0.00  0.00    +0.000 A 
ATOM     29  C   UNL     1       7.202   5.247 -22.542  0.00  0.00    +0.004 A 
ATOM     30  C   UNL     1       6.074   4.821 -22.096  0.00  0.00    +0.046 A 
ENDBRANCH  24  25
ENDBRANCH  11  24
TORSDOF 4
ENDMDL
