MODEL 1
REMARK VINA RESULT:    -8.034      0.000      0.000
REMARK INTER + INTRA:         -14.438
REMARK INTER:                 -12.756
REMARK INTRA:                  -1.682
REMARK UNBOUND:                -1.237
REMARK  Name = CCCCCCCCCCCC1=C(O)C(=O)C=C(NC)C1=O                                   ZINC000106803392
REMARK  13 active torsions:
REMARK  status: ('A' for Active; 'I' for Inactive)
REMARK    1  A    between atoms: C_1  and  C_2
REMARK    2  A    between atoms: C_2  and  C_3
REMARK    3  A    between atoms: C_3  and  C_4
REMARK    4  A    between atoms: C_4  and  C_5
REMARK    5  A    between atoms: C_5  and  C_6
REMARK    6  A    between atoms: C_6  and  C_7
REMARK    7  A    between atoms: C_7  and  C_8
REMARK    8  A    between atoms: C_8  and  C_9
REMARK    9  A    between atoms: C_9  and  C_10
REMARK   10  A    between atoms: C_10  and  C_11
REMARK   11  A    between atoms: C_11  and  C_12
REMARK   12  A    between atoms: C_18  and  N_19
REMARK   13  A    between atoms: N_19  and  C_20
REMARK                            x       y       z     vdW  Elec       q    Type
REMARK                         _______ _______ _______ _____ _____    ______ ____
ROOT
ATOM      1  C   UNL     1       0.524   3.321 -23.258  0.00  0.00    -0.008 C 
ATOM      2  C   UNL     1       0.715   2.148 -22.730  0.00  0.00    +0.228 C 
ATOM      3  C   UNL     1       1.893   1.818 -22.290  0.00  0.00    +0.227 C 
ATOM      4  C   UNL     1       2.879   2.660 -22.378  0.00  0.00    +0.076 C 
ATOM      5  C   UNL     1       2.688   3.832 -22.906  0.00  0.00    +0.018 C 
ATOM      6  O   UNL     1       2.084   0.645 -21.761  0.00  0.00    -0.284 OA
ATOM      7  O   UNL     1      -0.272   1.306 -22.642  0.00  0.00    -0.284 OA
ATOM      8  C   UNL     1       1.511   4.163 -23.346  0.00  0.00    -0.112 C 
ATOM      9  O   UNL     1       1.320   5.335 -23.874  0.00  0.00    -0.828 OA
ENDROOT
BRANCH   5  10
ATOM     10  N   UNL     1       3.676   4.674 -22.994  0.00  0.00    -0.348 N 
ATOM     11  H   UNL     1       3.509   5.639 -22.894  0.00  0.00    +0.146 HD
ATOM     12  C   UNL     1       4.881   4.241 -23.214  0.00  0.00    +0.125 C 
ENDBRANCH   5  10
BRANCH   1  13
ATOM     13  C   UNL     1      -0.654   3.651 -23.698  0.00  0.00    +0.038 C 
BRANCH  13  14
ATOM     14  C   UNL     1      -1.030   3.282 -24.886  0.00  0.00    +0.005 C 
BRANCH  14  15
ATOM     15  C   UNL     1      -2.112   3.780 -25.408  0.00  0.00    +0.000 C 
BRANCH  15  16
ATOM     16  C   UNL     1      -3.155   3.023 -25.587  0.00  0.00    +0.000 C 
BRANCH  16  17
ATOM     17  C   UNL     1      -4.348   3.526 -25.476  0.00  0.00    +0.000 C 
BRANCH  17  18
ATOM     18  C   UNL     1      -4.668   4.213 -24.420  0.00  0.00    +0.000 C 
BRANCH  18  19
ATOM     19  C   UNL     1      -5.282   3.635 -23.429  0.00  0.00    -0.000 C 
BRANCH  19  20
ATOM     20  C   UNL     1      -4.726   3.594 -22.255  0.00  0.00    -0.000 C 
BRANCH  20  21
ATOM     21  C   UNL     1      -3.778   2.737 -22.014  0.00  0.00    -0.000 C 
BRANCH  21  23
ATOM     22  C   UNL     1      -3.132   3.910 -20.204  0.00  0.00    +0.004 C 
ATOM     23  C   UNL     1      -3.087   2.823 -20.916  0.00  0.00    -0.003 C 
ENDBRANCH  21  23
ENDBRANCH  20  21
ENDBRANCH  19  20
ENDBRANCH  18  19
ENDBRANCH  17  18
ENDBRANCH  16  17
ENDBRANCH  15  16
ENDBRANCH  14  15
ENDBRANCH  13  14
ENDBRANCH   1  13
TORSDOF 11
ENDMDL
MODEL 2
REMARK VINA RESULT:    -8.005      1.298      2.394
REMARK INTER + INTRA:         -14.389
REMARK INTER:                 -12.685
REMARK INTRA:                  -1.704
REMARK UNBOUND:                -1.237
REMARK  Name = CCCCCCCCCCCC1=C(O)C(=O)C=C(NC)C1=O                                   ZINC000106803392
REMARK  13 active torsions:
REMARK  status: ('A' for Active; 'I' for Inactive)
REMARK    1  A    between atoms: C_1  and  C_2
REMARK    2  A    between atoms: C_2  and  C_3
REMARK    3  A    between atoms: C_3  and  C_4
REMARK    4  A    between atoms: C_4  and  C_5
REMARK    5  A    between atoms: C_5  and  C_6
REMARK    6  A    between atoms: C_6  and  C_7
REMARK    7  A    between atoms: C_7  and  C_8
REMARK    8  A    between atoms: C_8  and  C_9
REMARK    9  A    between atoms: C_9  and  C_10
REMARK   10  A    between atoms: C_10  and  C_11
REMARK   11  A    between atoms: C_11  and  C_12
REMARK   12  A    between atoms: C_18  and  N_19
REMARK   13  A    between atoms: N_19  and  C_20
REMARK                            x       y       z     vdW  Elec       q    Type
REMARK                         _______ _______ _______ _____ _____    ______ ____
ROOT
ATOM      1  C   UNL     1       0.566   3.119 -23.058  0.00  0.00    -0.008 C 
ATOM      2  C   UNL     1       1.452   4.044 -23.279  0.00  0.00    +0.228 C 
ATOM      3  C   UNL     1       2.698   3.838 -22.968  0.00  0.00    +0.227 C 
ATOM      4  C   UNL     1       3.057   2.708 -22.436  0.00  0.00    +0.076 C 
ATOM      5  C   UNL     1       2.171   1.783 -22.215  0.00  0.00    +0.018 C 
ATOM      6  O   UNL     1       3.584   4.764 -23.188  0.00  0.00    -0.284 OA
ATOM      7  O   UNL     1       1.093   5.174 -23.811  0.00  0.00    -0.284 OA
ATOM      8  C   UNL     1       0.926   1.988 -22.526  0.00  0.00    -0.112 C 
ATOM      9  O   UNL     1       0.040   1.062 -22.306  0.00  0.00    -0.828 OA
ENDROOT
BRANCH   5  10
ATOM     10  N   UNL     1       2.531   0.652 -21.683  0.00  0.00    -0.348 N 
ATOM     11  H   UNL     1       1.918  -0.118 -21.702  0.00  0.00    +0.146 HD
ATOM     12  C   UNL     1       3.700   0.538 -21.126  0.00  0.00    +0.125 C 
ENDBRANCH   5  10
BRANCH   1  13
ATOM     13  C   UNL     1      -0.679   3.324 -23.370  0.00  0.00    +0.038 C 
BRANCH  13  14
ATOM     14  C   UNL     1      -1.115   3.000 -24.550  0.00  0.00    +0.005 C 
BRANCH  14  15
ATOM     15  C   UNL     1      -2.394   2.938 -24.776  0.00  0.00    +0.000 C 
BRANCH  15  16
ATOM     16  C   UNL     1      -3.063   4.024 -25.028  0.00  0.00    +0.000 C 
BRANCH  16  17
ATOM     17  C   UNL     1      -4.363   3.991 -25.069  0.00  0.00    +0.000 C 
BRANCH  17  18
ATOM     18  C   UNL     1      -5.054   4.359 -24.031  0.00  0.00    +0.000 C 
BRANCH  18  19
ATOM     19  C   UNL     1      -5.551   3.464 -23.230  0.00  0.00    -0.000 C 
BRANCH  19  20
ATOM     20  C   UNL     1      -5.249   3.484 -21.966  0.00  0.00    -0.000 C 
BRANCH  20  21
ATOM     21  C   UNL     1      -4.511   2.542 -21.459  0.00  0.00    -0.000 C 
BRANCH  21  23
ATOM     22  C   UNL     1      -3.069   3.974 -20.487  0.00  0.00    +0.004 C 
ATOM     23  C   UNL     1      -3.316   2.816 -21.024  0.00  0.00    -0.003 C 
ENDBRANCH  21  23
ENDBRANCH  20  21
ENDBRANCH  19  20
ENDBRANCH  18  19
ENDBRANCH  17  18
ENDBRANCH  16  17
ENDBRANCH  15  16
ENDBRANCH  14  15
ENDBRANCH  13  14
ENDBRANCH   1  13
TORSDOF 11
ENDMDL
MODEL 3
REMARK VINA RESULT:    -7.975      1.399      3.652
REMARK INTER + INTRA:         -14.340
REMARK INTER:                 -12.714
REMARK INTRA:                  -1.626
REMARK UNBOUND:                -1.237
REMARK  Name = CCCCCCCCCCCC1=C(O)C(=O)C=C(NC)C1=O                                   ZINC000106803392
REMARK  13 active torsions:
REMARK  status: ('A' for Active; 'I' for Inactive)
REMARK    1  A    between atoms: C_1  and  C_2
REMARK    2  A    between atoms: C_2  and  C_3
REMARK    3  A    between atoms: C_3  and  C_4
REMARK    4  A    between atoms: C_4  and  C_5
REMARK    5  A    between atoms: C_5  and  C_6
REMARK    6  A    between atoms: C_6  and  C_7
REMARK    7  A    between atoms: C_7  and  C_8
REMARK    8  A    between atoms: C_8  and  C_9
REMARK    9  A    between atoms: C_9  and  C_10
REMARK   10  A    between atoms: C_10  and  C_11
REMARK   11  A    between atoms: C_11  and  C_12
REMARK   12  A    between atoms: C_18  and  N_19
REMARK   13  A    between atoms: N_19  and  C_20
REMARK                            x       y       z     vdW  Elec       q    Type
REMARK                         _______ _______ _______ _____ _____    ______ ____
ROOT
ATOM      1  C   UNL     1      -0.407   3.127 -22.678  0.00  0.00    -0.008 C 
ATOM      2  C   UNL     1      -0.007   4.287 -23.107  0.00  0.00    +0.228 C 
ATOM      3  C   UNL     1       1.242   4.468 -23.421  0.00  0.00    +0.227 C 
ATOM      4  C   UNL     1       2.090   3.489 -23.306  0.00  0.00    +0.076 C 
ATOM      5  C   UNL     1       1.689   2.329 -22.877  0.00  0.00    +0.018 C 
ATOM      6  O   UNL     1       1.643   5.628 -23.850  0.00  0.00    -0.284 OA
ATOM      7  O   UNL     1      -0.854   5.266 -23.222  0.00  0.00    -0.284 OA
ATOM      8  C   UNL     1       0.441   2.148 -22.563  0.00  0.00    -0.112 C 
ATOM      9  O   UNL     1       0.041   0.988 -22.134  0.00  0.00    -0.828 OA
ENDROOT
BRANCH   5  10
ATOM     10  N   UNL     1       2.538   1.350 -22.762  0.00  0.00    -0.348 N 
ATOM     11  H   UNL     1       2.773   1.005 -21.870  0.00  0.00    +0.146 HD
ATOM     12  C   UNL     1       3.075   0.828 -23.823  0.00  0.00    +0.125 C 
ENDBRANCH   5  10
BRANCH   1  13
ATOM     13  C   UNL     1      -1.655   2.946 -22.364  0.00  0.00    +0.038 C 
BRANCH  13  14
ATOM     14  C   UNL     1      -2.081   3.271 -21.180  0.00  0.00    +0.005 C 
BRANCH  14  15
ATOM     15  C   UNL     1      -3.353   3.442 -20.971  0.00  0.00    +0.000 C 
BRANCH  15  16
ATOM     16  C   UNL     1      -4.197   2.509 -21.302  0.00  0.00    +0.000 C 
BRANCH  16  17
ATOM     17  C   UNL     1      -5.384   2.829 -21.726  0.00  0.00    +0.000 C 
BRANCH  17  18
ATOM     18  C   UNL     1      -5.522   3.738 -22.644  0.00  0.00    +0.000 C 
BRANCH  18  19
ATOM     19  C   UNL     1      -5.119   3.503 -23.858  0.00  0.00    -0.000 C 
BRANCH  19  20
ATOM     20  C   UNL     1      -4.794   4.491 -24.637  0.00  0.00    -0.000 C 
BRANCH  20  21
ATOM     21  C   UNL     1      -3.593   4.560 -25.131  0.00  0.00    -0.000 C 
BRANCH  21  23
ATOM     22  C   UNL     1      -3.277   3.437 -27.057  0.00  0.00    +0.004 C 
ATOM     23  C   UNL     1      -3.095   3.546 -25.775  0.00  0.00    -0.003 C 
ENDBRANCH  21  23
ENDBRANCH  20  21
ENDBRANCH  19  20
ENDBRANCH  18  19
ENDBRANCH  17  18
ENDBRANCH  16  17
ENDBRANCH  15  16
ENDBRANCH  14  15
ENDBRANCH  13  14
ENDBRANCH   1  13
TORSDOF 11
ENDMDL
MODEL 4
REMARK VINA RESULT:    -7.881      1.998      3.493
REMARK INTER + INTRA:         -14.186
REMARK INTER:                 -12.508
REMARK INTRA:                  -1.678
REMARK UNBOUND:                -1.237
REMARK  Name = CCCCCCCCCCCC1=C(O)C(=O)C=C(NC)C1=O                                   ZINC000106803392
REMARK  13 active torsions:
REMARK  status: ('A' for Active; 'I' for Inactive)
REMARK    1  A    between atoms: C_1  and  C_2
REMARK    2  A    between atoms: C_2  and  C_3
REMARK    3  A    between atoms: C_3  and  C_4
REMARK    4  A    between atoms: C_4  and  C_5
REMARK    5  A    between atoms: C_5  and  C_6
REMARK    6  A    between atoms: C_6  and  C_7
REMARK    7  A    between atoms: C_7  and  C_8
REMARK    8  A    between atoms: C_8  and  C_9
REMARK    9  A    between atoms: C_9  and  C_10
REMARK   10  A    between atoms: C_10  and  C_11
REMARK   11  A    between atoms: C_11  and  C_12
REMARK   12  A    between atoms: C_18  and  N_19
REMARK   13  A    between atoms: N_19  and  C_20
REMARK                            x       y       z     vdW  Elec       q    Type
REMARK                         _______ _______ _______ _____ _____    ______ ____
ROOT
ATOM      1  C   UNL     1       1.047   1.924 -22.168  0.00  0.00    -0.008 C 
ATOM      2  C   UNL     1       1.513   1.908 -23.381  0.00  0.00    +0.228 C 
ATOM      3  C   UNL     1       2.681   1.389 -23.622  0.00  0.00    +0.227 C 
ATOM      4  C   UNL     1       3.381   0.886 -22.650  0.00  0.00    +0.076 C 
ATOM      5  C   UNL     1       2.916   0.902 -21.437  0.00  0.00    +0.018 C 
ATOM      6  O   UNL     1       3.146   1.373 -24.836  0.00  0.00    -0.284 OA
ATOM      7  O   UNL     1       0.812   2.411 -24.354  0.00  0.00    -0.284 OA
ATOM      8  C   UNL     1       1.749   1.421 -21.195  0.00  0.00    -0.112 C 
ATOM      9  O   UNL     1       1.283   1.437 -19.982  0.00  0.00    -0.828 OA
ENDROOT
BRANCH   5  10
ATOM     10  N   UNL     1       3.617   0.398 -20.464  0.00  0.00    -0.348 N 
ATOM     11  H   UNL     1       3.178   0.141 -19.622  0.00  0.00    +0.146 HD
ATOM     12  C   UNL     1       4.899   0.235 -20.604  0.00  0.00    +0.125 C 
ENDBRANCH   5  10
BRANCH   1  13
ATOM     13  C   UNL     1      -0.120   2.444 -21.926  0.00  0.00    +0.038 C 
BRANCH  13  14
ATOM     14  C   UNL     1      -1.196   1.740 -22.117  0.00  0.00    +0.005 C 
BRANCH  14  15
ATOM     15  C   UNL     1      -2.268   1.994 -21.428  0.00  0.00    +0.000 C 
BRANCH  15  16
ATOM     16  C   UNL     1      -2.483   3.195 -20.978  0.00  0.00    +0.000 C 
BRANCH  16  17
ATOM     17  C   UNL     1      -3.667   3.722 -21.073  0.00  0.00    +0.000 C 
BRANCH  17  18
ATOM     18  C   UNL     1      -4.602   3.104 -21.731  0.00  0.00    +0.000 C 
BRANCH  18  19
ATOM     19  C   UNL     1      -5.246   3.718 -22.680  0.00  0.00    -0.000 C 
BRANCH  19  20
ATOM     20  C   UNL     1      -4.911   3.529 -23.921  0.00  0.00    -0.000 C 
BRANCH  20  21
ATOM     21  C   UNL     1      -4.200   4.421 -24.545  0.00  0.00    -0.000 C 
BRANCH  21  23
ATOM     22  C   UNL     1      -2.451   3.256 -25.355  0.00  0.00    +0.004 C 
ATOM     23  C   UNL     1      -2.916   4.258 -24.670  0.00  0.00    -0.003 C 
ENDBRANCH  21  23
ENDBRANCH  20  21
ENDBRANCH  19  20
ENDBRANCH  18  19
ENDBRANCH  17  18
ENDBRANCH  16  17
ENDBRANCH  15  16
ENDBRANCH  14  15
ENDBRANCH  13  14
ENDBRANCH   1  13
TORSDOF 11
ENDMDL
MODEL 5
REMARK VINA RESULT:    -7.737      1.554      2.597
REMARK INTER + INTRA:         -13.948
REMARK INTER:                 -12.506
REMARK INTRA:                  -1.442
REMARK UNBOUND:                -1.237
REMARK  Name = CCCCCCCCCCCC1=C(O)C(=O)C=C(NC)C1=O                                   ZINC000106803392
REMARK  13 active torsions:
REMARK  status: ('A' for Active; 'I' for Inactive)
REMARK    1  A    between atoms: C_1  and  C_2
REMARK    2  A    between atoms: C_2  and  C_3
REMARK    3  A    between atoms: C_3  and  C_4
REMARK    4  A    between atoms: C_4  and  C_5
REMARK    5  A    between atoms: C_5  and  C_6
REMARK    6  A    between atoms: C_6  and  C_7
REMARK    7  A    between atoms: C_7  and  C_8
REMARK    8  A    between atoms: C_8  and  C_9
REMARK    9  A    between atoms: C_9  and  C_10
REMARK   10  A    between atoms: C_10  and  C_11
REMARK   11  A    between atoms: C_11  and  C_12
REMARK   12  A    between atoms: C_18  and  N_19
REMARK   13  A    between atoms: N_19  and  C_20
REMARK                            x       y       z     vdW  Elec       q    Type
REMARK                         _______ _______ _______ _____ _____    ______ ____
ROOT
ATOM      1  C   UNL     1       1.866   3.349 -24.072  0.00  0.00    -0.008 C 
ATOM      2  C   UNL     1       2.315   4.500 -23.667  0.00  0.00    +0.228 C 
ATOM      3  C   UNL     1       3.507   4.589 -23.155  0.00  0.00    +0.227 C 
ATOM      4  C   UNL     1       4.249   3.528 -23.048  0.00  0.00    +0.076 C 
ATOM      5  C   UNL     1       3.801   2.377 -23.452  0.00  0.00    +0.018 C 
ATOM      6  O   UNL     1       3.956   5.740 -22.751  0.00  0.00    -0.284 OA
ATOM      7  O   UNL     1       1.572   5.561 -23.775  0.00  0.00    -0.284 OA
ATOM      8  C   UNL     1       2.609   2.287 -23.964  0.00  0.00    -0.112 C 
ATOM      9  O   UNL     1       2.161   1.136 -24.368  0.00  0.00    -0.828 OA
ENDROOT
BRANCH   5  10
ATOM     10  N   UNL     1       4.544   1.315 -23.344  0.00  0.00    -0.348 N 
ATOM     11  H   UNL     1       4.798   0.808 -24.149  0.00  0.00    +0.146 HD
ATOM     12  C   UNL     1       4.951   0.923 -22.174  0.00  0.00    +0.125 C 
ENDBRANCH   5  10
BRANCH   1  13
ATOM     13  C   UNL     1       0.675   3.259 -24.584  0.00  0.00    +0.038 C 
BRANCH  13  14
ATOM     14  C   UNL     1      -0.311   2.818 -23.861  0.00  0.00    +0.005 C 
BRANCH  14  15
ATOM     15  C   UNL     1      -1.334   3.584 -23.621  0.00  0.00    +0.000 C 
BRANCH  15  16
ATOM     16  C   UNL     1      -1.907   4.227 -24.595  0.00  0.00    +0.000 C 
BRANCH  16  17
ATOM     17  C   UNL     1      -3.185   4.465 -24.553  0.00  0.00    +0.000 C 
BRANCH  17  18
ATOM     18  C   UNL     1      -4.015   3.504 -24.275  0.00  0.00    +0.000 C 
BRANCH  18  19
ATOM     19  C   UNL     1      -5.111   3.758 -23.624  0.00  0.00    -0.000 C 
BRANCH  19  20
ATOM     20  C   UNL     1      -5.144   3.626 -22.331  0.00  0.00    -0.000 C 
BRANCH  20  21
ATOM     21  C   UNL     1      -4.429   2.707 -21.754  0.00  0.00    -0.000 C 
BRANCH  21  23
ATOM     22  C   UNL     1      -3.138   3.967 -20.406  0.00  0.00    +0.004 C 
ATOM     23  C   UNL     1      -3.901   2.931 -20.586  0.00  0.00    -0.003 C 
ENDBRANCH  21  23
ENDBRANCH  20  21
ENDBRANCH  19  20
ENDBRANCH  18  19
ENDBRANCH  17  18
ENDBRANCH  16  17
ENDBRANCH  15  16
ENDBRANCH  14  15
ENDBRANCH  13  14
ENDBRANCH   1  13
TORSDOF 11
ENDMDL
MODEL 6
REMARK VINA RESULT:    -7.632      0.953      2.846
REMARK INTER + INTRA:         -13.776
REMARK INTER:                 -12.268
REMARK INTRA:                  -1.509
REMARK UNBOUND:                -1.237
REMARK  Name = CCCCCCCCCCCC1=C(O)C(=O)C=C(NC)C1=O                                   ZINC000106803392
REMARK  13 active torsions:
REMARK  status: ('A' for Active; 'I' for Inactive)
REMARK    1  A    between atoms: C_1  and  C_2
REMARK    2  A    between atoms: C_2  and  C_3
REMARK    3  A    between atoms: C_3  and  C_4
REMARK    4  A    between atoms: C_4  and  C_5
REMARK    5  A    between atoms: C_5  and  C_6
REMARK    6  A    between atoms: C_6  and  C_7
REMARK    7  A    between atoms: C_7  and  C_8
REMARK    8  A    between atoms: C_8  and  C_9
REMARK    9  A    between atoms: C_9  and  C_10
REMARK   10  A    between atoms: C_10  and  C_11
REMARK   11  A    between atoms: C_11  and  C_12
REMARK   12  A    between atoms: C_18  and  N_19
REMARK   13  A    between atoms: N_19  and  C_20
REMARK                            x       y       z     vdW  Elec       q    Type
REMARK                         _______ _______ _______ _____ _____    ______ ____
ROOT
ATOM      1  C   UNL     1      -0.377   3.036 -22.554  0.00  0.00    -0.008 C 
ATOM      2  C   UNL     1       0.098   1.860 -22.267  0.00  0.00    +0.228 C 
ATOM      3  C   UNL     1       1.370   1.624 -22.398  0.00  0.00    +0.227 C 
ATOM      4  C   UNL     1       2.166   2.563 -22.815  0.00  0.00    +0.076 C 
ATOM      5  C   UNL     1       1.691   3.739 -23.101  0.00  0.00    +0.018 C 
ATOM      6  O   UNL     1       1.845   0.448 -22.112  0.00  0.00    -0.284 OA
ATOM      7  O   UNL     1      -0.698   0.921 -21.851  0.00  0.00    -0.284 OA
ATOM      8  C   UNL     1       0.420   3.975 -22.971  0.00  0.00    -0.112 C 
ATOM      9  O   UNL     1      -0.055   5.151 -23.257  0.00  0.00    -0.828 OA
ENDROOT
BRANCH   5  10
ATOM     10  N   UNL     1       2.488   4.678 -23.518  0.00  0.00    -0.348 N 
ATOM     11  H   UNL     1       2.127   5.438 -24.029  0.00  0.00    +0.146 HD
ATOM     12  C   UNL     1       3.760   4.613 -23.260  0.00  0.00    +0.125 C 
ENDBRANCH   5  10
BRANCH   1  13
ATOM     13  C   UNL     1      -1.648   3.272 -22.423  0.00  0.00    +0.038 C 
BRANCH  13  14
ATOM     14  C   UNL     1      -2.096   3.840 -21.343  0.00  0.00    +0.005 C 
BRANCH  14  15
ATOM     15  C   UNL     1      -3.034   3.267 -20.649  0.00  0.00    +0.000 C 
BRANCH  15  16
ATOM     16  C   UNL     1      -4.024   2.679 -21.254  0.00  0.00    +0.000 C 
BRANCH  16  17
ATOM     17  C   UNL     1      -5.098   3.351 -21.545  0.00  0.00    +0.000 C 
BRANCH  17  18
ATOM     18  C   UNL     1      -5.538   3.372 -22.768  0.00  0.00    +0.000 C 
BRANCH  18  19
ATOM     19  C   UNL     1      -4.962   4.129 -23.655  0.00  0.00    -0.000 C 
BRANCH  19  20
ATOM     20  C   UNL     1      -5.010   3.808 -24.913  0.00  0.00    -0.000 C 
BRANCH  20  21
ATOM     21  C   UNL     1      -4.088   4.230 -25.726  0.00  0.00    -0.000 C 
BRANCH  21  23
ATOM     22  C   UNL     1      -1.967   3.485 -25.868  0.00  0.00    +0.004 C 
ATOM     23  C   UNL     1      -3.217   3.395 -26.212  0.00  0.00    -0.003 C 
ENDBRANCH  21  23
ENDBRANCH  20  21
ENDBRANCH  19  20
ENDBRANCH  18  19
ENDBRANCH  17  18
ENDBRANCH  16  17
ENDBRANCH  15  16
ENDBRANCH  14  15
ENDBRANCH  13  14
ENDBRANCH   1  13
TORSDOF 11
ENDMDL
MODEL 7
REMARK VINA RESULT:    -7.395      0.917      2.563
REMARK INTER + INTRA:         -13.388
REMARK INTER:                 -12.034
REMARK INTRA:                  -1.354
REMARK UNBOUND:                -1.237
REMARK  Name = CCCCCCCCCCCC1=C(O)C(=O)C=C(NC)C1=O                                   ZINC000106803392
REMARK  13 active torsions:
REMARK  status: ('A' for Active; 'I' for Inactive)
REMARK    1  A    between atoms: C_1  and  C_2
REMARK    2  A    between atoms: C_2  and  C_3
REMARK    3  A    between atoms: C_3  and  C_4
REMARK    4  A    between atoms: C_4  and  C_5
REMARK    5  A    between atoms: C_5  and  C_6
REMARK    6  A    between atoms: C_6  and  C_7
REMARK    7  A    between atoms: C_7  and  C_8
REMARK    8  A    between atoms: C_8  and  C_9
REMARK    9  A    between atoms: C_9  and  C_10
REMARK   10  A    between atoms: C_10  and  C_11
REMARK   11  A    between atoms: C_11  and  C_12
REMARK   12  A    between atoms: C_18  and  N_19
REMARK   13  A    between atoms: N_19  and  C_20
REMARK                            x       y       z     vdW  Elec       q    Type
REMARK                         _______ _______ _______ _____ _____    ______ ____
ROOT
ATOM      1  C   UNL     1       1.104   2.590 -22.828  0.00  0.00    -0.008 C 
ATOM      2  C   UNL     1       1.594   1.464 -22.401  0.00  0.00    +0.228 C 
ATOM      3  C   UNL     1       2.871   1.350 -22.186  0.00  0.00    +0.227 C 
ATOM      4  C   UNL     1       3.659   2.362 -22.399  0.00  0.00    +0.076 C 
ATOM      5  C   UNL     1       3.170   3.488 -22.826  0.00  0.00    +0.018 C 
ATOM      6  O   UNL     1       3.361   0.224 -21.759  0.00  0.00    -0.284 OA
ATOM      7  O   UNL     1       0.806   0.452 -22.188  0.00  0.00    -0.284 OA
ATOM      8  C   UNL     1       1.893   3.602 -23.040  0.00  0.00    -0.112 C 
ATOM      9  O   UNL     1       1.403   4.728 -23.467  0.00  0.00    -0.828 OA
ENDROOT
BRANCH   5  10
ATOM     10  N   UNL     1       3.958   4.500 -23.038  0.00  0.00    -0.348 N 
ATOM     11  H   UNL     1       3.579   5.378 -23.272  0.00  0.00    +0.146 HD
ATOM     12  C   UNL     1       5.246   4.353 -22.942  0.00  0.00    +0.125 C 
ENDBRANCH   5  10
BRANCH   1  13
ATOM     13  C   UNL     1      -0.172   2.704 -23.042  0.00  0.00    +0.038 C 
BRANCH  13  14
ATOM     14  C   UNL     1      -0.963   3.072 -22.078  0.00  0.00    +0.005 C 
BRANCH  14  15
ATOM     15  C   UNL     1      -2.065   2.420 -21.857  0.00  0.00    +0.000 C 
BRANCH  15  16
ATOM     16  C   UNL     1      -2.984   2.936 -21.095  0.00  0.00    +0.000 C 
BRANCH  16  17
ATOM     17  C   UNL     1      -4.172   2.408 -21.061  0.00  0.00    +0.000 C 
BRANCH  17  18
ATOM     18  C   UNL     1      -5.153   2.976 -21.695  0.00  0.00    +0.000 C 
BRANCH  18  19
ATOM     19  C   UNL     1      -4.911   3.915 -22.562  0.00  0.00    -0.000 C 
BRANCH  19  20
ATOM     20  C   UNL     1      -5.419   3.844 -23.756  0.00  0.00    -0.000 C 
BRANCH  20  21
ATOM     21  C   UNL     1      -4.667   3.514 -24.763  0.00  0.00    -0.000 C 
BRANCH  21  23
ATOM     22  C   UNL     1      -2.543   3.623 -25.505  0.00  0.00    +0.004 C 
ATOM     23  C   UNL     1      -3.604   4.211 -25.037  0.00  0.00    -0.003 C 
ENDBRANCH  21  23
ENDBRANCH  20  21
ENDBRANCH  19  20
ENDBRANCH  18  19
ENDBRANCH  17  18
ENDBRANCH  16  17
ENDBRANCH  15  16
ENDBRANCH  14  15
ENDBRANCH  13  14
ENDBRANCH   1  13
TORSDOF 11
ENDMDL
MODEL 8
REMARK VINA RESULT:    -7.265      2.319      3.395
REMARK INTER + INTRA:         -13.173
REMARK INTER:                 -10.937
REMARK INTRA:                  -2.236
REMARK UNBOUND:                -1.237
REMARK  Name = CCCCCCCCCCCC1=C(O)C(=O)C=C(NC)C1=O                                   ZINC000106803392
REMARK  13 active torsions:
REMARK  status: ('A' for Active; 'I' for Inactive)
REMARK    1  A    between atoms: C_1  and  C_2
REMARK    2  A    between atoms: C_2  and  C_3
REMARK    3  A    between atoms: C_3  and  C_4
REMARK    4  A    between atoms: C_4  and  C_5
REMARK    5  A    between atoms: C_5  and  C_6
REMARK    6  A    between atoms: C_6  and  C_7
REMARK    7  A    between atoms: C_7  and  C_8
REMARK    8  A    between atoms: C_8  and  C_9
REMARK    9  A    between atoms: C_9  and  C_10
REMARK   10  A    between atoms: C_10  and  C_11
REMARK   11  A    between atoms: C_11  and  C_12
REMARK   12  A    between atoms: C_18  and  N_19
REMARK   13  A    between atoms: N_19  and  C_20
REMARK                            x       y       z     vdW  Elec       q    Type
REMARK                         _______ _______ _______ _____ _____    ______ ____
ROOT
ATOM      1  C   UNL     1       2.269   4.012 -23.962  0.00  0.00    -0.008 C 
ATOM      2  C   UNL     1       2.114   2.846 -24.516  0.00  0.00    +0.228 C 
ATOM      3  C   UNL     1       3.067   1.963 -24.451  0.00  0.00    +0.227 C 
ATOM      4  C   UNL     1       4.174   2.247 -23.832  0.00  0.00    +0.076 C 
ATOM      5  C   UNL     1       4.329   3.413 -23.277  0.00  0.00    +0.018 C 
ATOM      6  O   UNL     1       2.912   0.798 -25.005  0.00  0.00    -0.284 OA
ATOM      7  O   UNL     1       1.007   2.562 -25.135  0.00  0.00    -0.284 OA
ATOM      8  C   UNL     1       3.377   4.295 -23.342  0.00  0.00    -0.112 C 
ATOM      9  O   UNL     1       3.532   5.460 -22.788  0.00  0.00    -0.828 OA
ENDROOT
BRANCH   5  10
ATOM     10  N   UNL     1       5.437   3.696 -22.658  0.00  0.00    -0.348 N 
ATOM     11  H   UNL     1       5.680   4.634 -22.489  0.00  0.00    +0.146 HD
ATOM     12  C   UNL     1       6.223   2.739 -22.262  0.00  0.00    +0.125 C 
ENDBRANCH   5  10
BRANCH   1  13
ATOM     13  C   UNL     1       1.317   4.894 -24.026  0.00  0.00    +0.038 C 
BRANCH  13  14
ATOM     14  C   UNL     1       0.432   4.966 -23.077  0.00  0.00    +0.005 C 
BRANCH  14  15
ATOM     15  C   UNL     1      -0.815   5.189 -23.366  0.00  0.00    +0.000 C 
BRANCH  15  16
ATOM     16  C   UNL     1      -1.720   4.303 -23.070  0.00  0.00    +0.000 C 
BRANCH  16  17
ATOM     17  C   UNL     1      -2.049   4.101 -21.829  0.00  0.00    +0.000 C 
BRANCH  17  18
ATOM     18  C   UNL     1      -2.206   2.888 -21.388  0.00  0.00    +0.000 C 
BRANCH  18  19
ATOM     19  C   UNL     1      -1.598   1.900 -21.975  0.00  0.00    -0.000 C 
BRANCH  19  20
ATOM     20  C   UNL     1      -0.680   1.233 -21.342  0.00  0.00    -0.000 C 
BRANCH  20  21
ATOM     21  C   UNL     1       0.561   1.314 -21.722  0.00  0.00    -0.000 C 
BRANCH  21  23
ATOM     22  C   UNL     1       2.611   1.324 -20.790  0.00  0.00    +0.004 C 
ATOM     23  C   UNL     1       1.443   1.873 -20.946  0.00  0.00    -0.003 C 
ENDBRANCH  21  23
ENDBRANCH  20  21
ENDBRANCH  19  20
ENDBRANCH  18  19
ENDBRANCH  17  18
ENDBRANCH  16  17
ENDBRANCH  15  16
ENDBRANCH  14  15
ENDBRANCH  13  14
ENDBRANCH   1  13
TORSDOF 11
ENDMDL
MODEL 9
REMARK VINA RESULT:    -7.045      2.860      6.610
REMARK INTER + INTRA:         -12.812
REMARK INTER:                 -11.575
REMARK INTRA:                  -1.237
REMARK UNBOUND:                -1.237
REMARK  Name = CCCCCCCCCCCC1=C(O)C(=O)C=C(NC)C1=O                                   ZINC000106803392
REMARK  13 active torsions:
REMARK  status: ('A' for Active; 'I' for Inactive)
REMARK    1  A    between atoms: C_1  and  C_2
REMARK    2  A    between atoms: C_2  and  C_3
REMARK    3  A    between atoms: C_3  and  C_4
REMARK    4  A    between atoms: C_4  and  C_5
REMARK    5  A    between atoms: C_5  and  C_6
REMARK    6  A    between atoms: C_6  and  C_7
REMARK    7  A    between atoms: C_7  and  C_8
REMARK    8  A    between atoms: C_8  and  C_9
REMARK    9  A    between atoms: C_9  and  C_10
REMARK   10  A    between atoms: C_10  and  C_11
REMARK   11  A    between atoms: C_11  and  C_12
REMARK   12  A    between atoms: C_18  and  N_19
REMARK   13  A    between atoms: N_19  and  C_20
REMARK                            x       y       z     vdW  Elec       q    Type
REMARK                         _______ _______ _______ _____ _____    ______ ____
ROOT
ATOM      1  C   UNL     1      -2.974   3.736 -22.593  0.00  0.00    -0.008 C 
ATOM      2  C   UNL     1      -4.025   3.437 -21.889  0.00  0.00    +0.228 C 
ATOM      3  C   UNL     1      -5.190   3.359 -22.461  0.00  0.00    +0.227 C 
ATOM      4  C   UNL     1      -5.304   3.581 -23.737  0.00  0.00    +0.076 C 
ATOM      5  C   UNL     1      -4.253   3.881 -24.441  0.00  0.00    +0.018 C 
ATOM      6  O   UNL     1      -6.241   3.059 -21.757  0.00  0.00    -0.284 OA
ATOM      7  O   UNL     1      -3.911   3.215 -20.613  0.00  0.00    -0.284 OA
ATOM      8  C   UNL     1      -3.089   3.958 -23.869  0.00  0.00    -0.112 C 
ATOM      9  O   UNL     1      -2.038   4.258 -24.574  0.00  0.00    -0.828 OA
ENDROOT
BRANCH   5  10
ATOM     10  N   UNL     1      -4.368   4.102 -25.717  0.00  0.00    -0.348 N 
ATOM     11  H   UNL     1      -4.536   5.015 -26.044  0.00  0.00    +0.146 HD
ATOM     12  C   UNL     1      -4.261   3.119 -26.560  0.00  0.00    +0.125 C 
ENDBRANCH   5  10
BRANCH   1  13
ATOM     13  C   UNL     1      -1.810   3.814 -22.022  0.00  0.00    +0.038 C 
BRANCH  13  14
ATOM     14  C   UNL     1      -0.892   2.936 -22.295  0.00  0.00    +0.005 C 
BRANCH  14  15
ATOM     15  C   UNL     1      -0.692   1.933 -21.493  0.00  0.00    +0.000 C 
BRANCH  15  16
ATOM     16  C   UNL     1       0.363   1.187 -21.634  0.00  0.00    +0.000 C 
BRANCH  16  17
ATOM     17  C   UNL     1       1.506   1.580 -21.154  0.00  0.00    +0.000 C 
BRANCH  17  18
ATOM     18  C   UNL     1       2.577   1.507 -21.886  0.00  0.00    +0.000 C 
BRANCH  18  19
ATOM     19  C   UNL     1       3.235   2.587 -22.187  0.00  0.00    -0.000 C 
BRANCH  19  20
ATOM     20  C   UNL     1       2.807   3.366 -23.136  0.00  0.00    -0.000 C 
BRANCH  20  21
ATOM     21  C   UNL     1       2.733   2.924 -24.355  0.00  0.00    -0.000 C 
BRANCH  21  23
ATOM     22  C   UNL     1       1.172   4.096 -25.478  0.00  0.00    +0.004 C 
ATOM     23  C   UNL     1       1.602   2.968 -24.996  0.00  0.00    -0.003 C 
ENDBRANCH  21  23
ENDBRANCH  20  21
ENDBRANCH  19  20
ENDBRANCH  18  19
ENDBRANCH  17  18
ENDBRANCH  16  17
ENDBRANCH  15  16
ENDBRANCH  14  15
ENDBRANCH  13  14
ENDBRANCH   1  13
TORSDOF 11
ENDMDL
