MODEL 1
REMARK VINA RESULT:    -9.759      0.000      0.000
REMARK INTER + INTRA:         -12.606
REMARK INTER:                 -12.220
REMARK INTRA:                  -0.386
REMARK UNBOUND:                -0.565
REMARK  Name = ZINC000000001368
REMARK  8 active torsions:
REMARK  status: ('A' for Active; 'I' for Inactive)
REMARK    1  A    between atoms: C_7  and  O_8
REMARK    2  A    between atoms: O_8  and  C_9
REMARK    3  A    between atoms: C_11  and  C_12
REMARK    4  A    between atoms: C_12  and  O_13
REMARK    5  A    between atoms: C_14  and  O_15
REMARK    6  A    between atoms: C_16  and  O_17
REMARK    7  A    between atoms: C_18  and  O_19
REMARK    8  A    between atoms: C_20  and  O_21
REMARK                            x       y       z     vdW  Elec       q    Type
REMARK                         _______ _______ _______ _____ _____    ______ ____
ROOT
ATOM      1  C   UNL     1       3.608   3.061 -23.187  0.00  0.00    +0.339 C 
ATOM      2  O   UNL     1       4.412   4.188 -22.742  0.00  0.00    -0.331 OA
ATOM      3  C   UNL     1       5.827   4.324 -22.919  0.00  0.00    +0.179 C 
ATOM      4  C   UNL     1       6.523   2.958 -23.063  0.00  0.00    +0.177 C 
ATOM      5  C   UNL     1       5.858   1.911 -22.152  0.00  0.00    +0.180 C 
ATOM      6  C   UNL     1       4.286   2.038 -22.030  0.00  0.00    +0.214 C 
ENDROOT
BRANCH   5   7
ATOM      7  O   UNL     1       6.267   0.615 -22.545  0.00  0.00    -0.386 OA
ATOM      8  H   UNL     1       5.699   0.302 -23.265  0.00  0.00    +0.210 HD
ENDBRANCH   5   7
BRANCH   4   9
ATOM      9  O   UNL     1       7.919   2.983 -22.833  0.00  0.00    -0.386 OA
ATOM     10  H   UNL     1       8.141   2.363 -22.120  0.00  0.00    +0.210 HD
ENDBRANCH   4   9
BRANCH   6  11
ATOM     11  O   UNL     1       4.199   2.543 -20.697  0.00  0.00    -0.383 OA
ATOM     12  H   UNL     1       4.878   2.121 -20.146  0.00  0.00    +0.210 HD
ENDBRANCH   6  11
BRANCH   1  13
ATOM     13  O   UNL     1       1.320   3.314 -23.876  0.00  0.00    -0.457 OA
BRANCH  13  20
ATOM     14  O   UNL     1      -6.260   3.334 -22.066  0.00  0.00    -0.245 OA
ATOM     15  C   UNL     1      -5.034   3.366 -22.096  0.00  0.00    +0.337 A 
ATOM     16  C   UNL     1      -4.218   3.385 -20.859  0.00  0.00    +0.092 A 
ATOM     17  C   UNL     1      -2.875   3.390 -20.903  0.00  0.00    +0.018 A 
ATOM     18  C   UNL     1      -2.170   3.385 -22.180  0.00  0.00    +0.021 A 
ATOM     19  C   UNL     1      -0.764   3.365 -22.260  0.00  0.00    +0.061 A 
ATOM     20  C   UNL     1      -0.095   3.373 -23.523  0.00  0.00    +0.166 A 
ATOM     21  C   UNL     1      -0.918   3.391 -24.679  0.00  0.00    +0.162 A 
ATOM     22  C   UNL     1      -2.324   3.407 -24.594  0.00  0.00    +0.096 A 
ATOM     23  C   UNL     1      -2.960   3.394 -23.343  0.00  0.00    +0.143 A 
ATOM     24  O   UNL     1      -4.337   3.376 -23.279  0.00  0.00    -0.422 OA
BRANCH  21  25
ATOM     25  O   UNL     1      -0.334   3.374 -25.913  0.00  0.00    -0.503 OA
ATOM     26  H   UNL     1       0.571   3.598 -26.006  0.00  0.00    +0.292 HD
ENDBRANCH  21  25
ENDBRANCH  13  20
ENDBRANCH   1  13
BRANCH   3  27
ATOM     27  C   UNL     1       6.294   5.169 -21.717  0.00  0.00    +0.190 C 
BRANCH  27  28
ATOM     28  O   UNL     1       6.473   4.346 -20.585  0.00  0.00    -0.392 OA
ATOM     29  H   UNL     1       7.389   4.030 -20.556  0.00  0.00    +0.210 HD
ENDBRANCH  27  28
ENDBRANCH   3  27
TORSDOF 8
ENDMDL
MODEL 2
REMARK VINA RESULT:    -9.460      0.926      1.738
REMARK INTER + INTRA:         -12.236
REMARK INTER:                 -11.779
REMARK INTRA:                  -0.457
REMARK UNBOUND:                -0.565
REMARK  Name = ZINC000000001368
REMARK  8 active torsions:
REMARK  status: ('A' for Active; 'I' for Inactive)
REMARK    1  A    between atoms: C_7  and  O_8
REMARK    2  A    between atoms: O_8  and  C_9
REMARK    3  A    between atoms: C_11  and  C_12
REMARK    4  A    between atoms: C_12  and  O_13
REMARK    5  A    between atoms: C_14  and  O_15
REMARK    6  A    between atoms: C_16  and  O_17
REMARK    7  A    between atoms: C_18  and  O_19
REMARK    8  A    between atoms: C_20  and  O_21
REMARK                            x       y       z     vdW  Elec       q    Type
REMARK                         _______ _______ _______ _____ _____    ______ ____
ROOT
ATOM      1  C   UNL     1       3.422   2.867 -23.146  0.00  0.00    +0.339 C 
ATOM      2  O   UNL     1       4.252   3.993 -22.749  0.00  0.00    -0.331 OA
ATOM      3  C   UNL     1       5.670   4.089 -22.933  0.00  0.00    +0.179 C 
ATOM      4  C   UNL     1       6.334   2.702 -23.020  0.00  0.00    +0.177 C 
ATOM      5  C   UNL     1       5.647   1.710 -22.066  0.00  0.00    +0.180 C 
ATOM      6  C   UNL     1       4.079   1.878 -21.948  0.00  0.00    +0.214 C 
ENDROOT
BRANCH   5   7
ATOM      7  O   UNL     1       6.025   0.389 -22.404  0.00  0.00    -0.386 OA
ATOM      8  H   UNL     1       6.071  -0.150 -21.600  0.00  0.00    +0.210 HD
ENDBRANCH   5   7
BRANCH   4   9
ATOM      9  O   UNL     1       7.731   2.704 -22.794  0.00  0.00    -0.386 OA
ATOM     10  H   UNL     1       8.012   3.589 -22.514  0.00  0.00    +0.210 HD
ENDBRANCH   4   9
BRANCH   6  11
ATOM     11  O   UNL     1       4.006   2.439 -20.637  0.00  0.00    -0.383 OA
ATOM     12  H   UNL     1       3.989   3.407 -20.699  0.00  0.00    +0.210 HD
ENDBRANCH   6  11
BRANCH   1  13
ATOM     13  O   UNL     1       1.138   3.143 -23.842  0.00  0.00    -0.457 OA
BRANCH  13  20
ATOM     14  O   UNL     1      -6.408   3.179 -21.895  0.00  0.00    -0.245 OA
ATOM     15  C   UNL     1      -5.307   3.261 -22.430  0.00  0.00    +0.337 A 
ATOM     16  C   UNL     1      -5.124   3.886 -23.761  0.00  0.00    +0.092 A 
ATOM     17  C   UNL     1      -3.910   3.997 -24.325  0.00  0.00    +0.018 A 
ATOM     18  C   UNL     1      -2.721   3.495 -23.644  0.00  0.00    +0.021 A 
ATOM     19  C   UNL     1      -1.431   3.618 -24.196  0.00  0.00    +0.061 A 
ATOM     20  C   UNL     1      -0.284   3.107 -23.515  0.00  0.00    +0.166 A 
ATOM     21  C   UNL     1      -0.513   2.486 -22.260  0.00  0.00    +0.162 A 
ATOM     22  C   UNL     1      -1.803   2.369 -21.710  0.00  0.00    +0.096 A 
ATOM     23  C   UNL     1      -2.916   2.882 -22.394  0.00  0.00    +0.143 A 
ATOM     24  O   UNL     1      -4.168   2.787 -21.824  0.00  0.00    -0.422 OA
BRANCH  21  25
ATOM     25  O   UNL     1       0.551   2.002 -21.552  0.00  0.00    -0.503 OA
ATOM     26  H   UNL     1       1.380   1.886 -21.974  0.00  0.00    +0.292 HD
ENDBRANCH  21  25
ENDBRANCH  13  20
ENDBRANCH   1  13
BRANCH   3  27
ATOM     27  C   UNL     1       6.158   4.972 -21.768  0.00  0.00    +0.190 C 
BRANCH  27  28
ATOM     28  O   UNL     1       6.400   4.179 -20.626  0.00  0.00    -0.392 OA
ATOM     29  H   UNL     1       7.306   4.330 -20.313  0.00  0.00    +0.210 HD
ENDBRANCH  27  28
ENDBRANCH   3  27
TORSDOF 8
ENDMDL
MODEL 3
REMARK VINA RESULT:    -9.427      1.557      2.640
REMARK INTER + INTRA:         -12.197
REMARK INTER:                 -11.555
REMARK INTRA:                  -0.641
REMARK UNBOUND:                -0.565
REMARK  Name = ZINC000000001368
REMARK  8 active torsions:
REMARK  status: ('A' for Active; 'I' for Inactive)
REMARK    1  A    between atoms: C_7  and  O_8
REMARK    2  A    between atoms: O_8  and  C_9
REMARK    3  A    between atoms: C_11  and  C_12
REMARK    4  A    between atoms: C_12  and  O_13
REMARK    5  A    between atoms: C_14  and  O_15
REMARK    6  A    between atoms: C_16  and  O_17
REMARK    7  A    between atoms: C_18  and  O_19
REMARK    8  A    between atoms: C_20  and  O_21
REMARK                            x       y       z     vdW  Elec       q    Type
REMARK                         _______ _______ _______ _____ _____    ______ ____
ROOT
ATOM      1  C   UNL     1       2.939   3.056 -23.011  0.00  0.00    +0.339 C 
ATOM      2  O   UNL     1       3.342   2.123 -21.972  0.00  0.00    -0.331 OA
ATOM      3  C   UNL     1       4.512   2.241 -21.153  0.00  0.00    +0.179 C 
ATOM      4  C   UNL     1       5.613   3.071 -21.839  0.00  0.00    +0.177 C 
ATOM      5  C   UNL     1       5.636   2.798 -23.353  0.00  0.00    +0.180 C 
ATOM      6  C   UNL     1       4.214   2.591 -24.013  0.00  0.00    +0.214 C 
ENDROOT
BRANCH   5   7
ATOM      7  O   UNL     1       6.393   3.800 -24.004  0.00  0.00    -0.386 OA
ATOM      8  H   UNL     1       6.034   3.951 -24.891  0.00  0.00    +0.210 HD
ENDBRANCH   5   7
BRANCH   4   9
ATOM      9  O   UNL     1       6.908   2.895 -21.295  0.00  0.00    -0.386 OA
ATOM     10  H   UNL     1       7.438   2.346 -21.894  0.00  0.00    +0.210 HD
ENDBRANCH   4   9
BRANCH   6  11
ATOM     11  O   UNL     1       4.273   1.183 -24.249  0.00  0.00    -0.383 OA
ATOM     12  H   UNL     1       3.927   0.710 -23.476  0.00  0.00    +0.210 HD
ENDBRANCH   6  11
BRANCH   1  13
ATOM     13  O   UNL     1       0.631   3.469 -23.537  0.00  0.00    -0.457 OA
BRANCH  13  20
ATOM     14  O   UNL     1      -6.866   2.738 -21.539  0.00  0.00    -0.245 OA
ATOM     15  C   UNL     1      -5.783   2.960 -22.069  0.00  0.00    +0.337 A 
ATOM     16  C   UNL     1      -5.666   3.743 -23.321  0.00  0.00    +0.092 A 
ATOM     17  C   UNL     1      -4.472   4.005 -23.878  0.00  0.00    +0.018 A 
ATOM     18  C   UNL     1      -3.240   3.517 -23.269  0.00  0.00    +0.021 A 
ATOM     19  C   UNL     1      -1.971   3.794 -23.814  0.00  0.00    +0.061 A 
ATOM     20  C   UNL     1      -0.780   3.294 -23.205  0.00  0.00    +0.166 A 
ATOM     21  C   UNL     1      -0.944   2.519 -22.028  0.00  0.00    +0.162 A 
ATOM     22  C   UNL     1      -2.214   2.246 -21.484  0.00  0.00    +0.096 A 
ATOM     23  C   UNL     1      -3.371   2.752 -22.096  0.00  0.00    +0.143 A 
ATOM     24  O   UNL     1      -4.604   2.503 -21.531  0.00  0.00    -0.422 OA
BRANCH  21  25
ATOM     25  O   UNL     1       0.163   2.035 -21.388  0.00  0.00    -0.503 OA
ATOM     26  H   UNL     1       0.066   1.499 -20.626  0.00  0.00    +0.292 HD
ENDBRANCH  21  25
ENDBRANCH  13  20
ENDBRANCH   1  13
BRANCH   3  27
ATOM     27  C   UNL     1       4.906   0.789 -20.819  0.00  0.00    +0.190 C 
BRANCH  27  28
ATOM     28  O   UNL     1       5.802   0.767 -19.729  0.00  0.00    -0.392 OA
ATOM     29  H   UNL     1       5.867  -0.137 -19.382  0.00  0.00    +0.210 HD
ENDBRANCH  27  28
ENDBRANCH   3  27
TORSDOF 8
ENDMDL
MODEL 4
REMARK VINA RESULT:    -8.832      1.078      2.138
REMARK INTER + INTRA:         -11.462
REMARK INTER:                 -11.112
REMARK INTRA:                  -0.349
REMARK UNBOUND:                -0.565
REMARK  Name = ZINC000000001368
REMARK  8 active torsions:
REMARK  status: ('A' for Active; 'I' for Inactive)
REMARK    1  A    between atoms: C_7  and  O_8
REMARK    2  A    between atoms: O_8  and  C_9
REMARK    3  A    between atoms: C_11  and  C_12
REMARK    4  A    between atoms: C_12  and  O_13
REMARK    5  A    between atoms: C_14  and  O_15
REMARK    6  A    between atoms: C_16  and  O_17
REMARK    7  A    between atoms: C_18  and  O_19
REMARK    8  A    between atoms: C_20  and  O_21
REMARK                            x       y       z     vdW  Elec       q    Type
REMARK                         _______ _______ _______ _____ _____    ______ ____
ROOT
ATOM      1  C   UNL     1       3.143   3.166 -22.857  0.00  0.00    +0.339 C 
ATOM      2  O   UNL     1       3.630   1.977 -22.175  0.00  0.00    -0.331 OA
ATOM      3  C   UNL     1       4.632   1.956 -21.151  0.00  0.00    +0.179 C 
ATOM      4  C   UNL     1       5.577   3.168 -21.247  0.00  0.00    +0.177 C 
ATOM      5  C   UNL     1       5.844   3.535 -22.717  0.00  0.00    +0.180 C 
ATOM      6  C   UNL     1       4.600   3.369 -23.680  0.00  0.00    +0.214 C 
ENDROOT
BRANCH   5   7
ATOM      7  O   UNL     1       6.412   4.829 -22.786  0.00  0.00    -0.386 OA
ATOM      8  H   UNL     1       6.023   5.314 -23.529  0.00  0.00    +0.210 HD
ENDBRANCH   5   7
BRANCH   4   9
ATOM      9  O   UNL     1       6.803   3.014 -20.556  0.00  0.00    -0.386 OA
ATOM     10  H   UNL     1       6.637   3.008 -19.599  0.00  0.00    +0.210 HD
ENDBRANCH   4   9
BRANCH   6  11
ATOM     11  O   UNL     1       5.020   2.209 -24.399  0.00  0.00    -0.383 OA
ATOM     12  H   UNL     1       4.710   1.413 -23.939  0.00  0.00    +0.210 HD
ENDBRANCH   6  11
BRANCH   1  13
ATOM     13  O   UNL     1       0.881   3.349 -23.650  0.00  0.00    -0.457 OA
BRANCH  13  20
ATOM     14  O   UNL     1      -6.772   3.175 -22.188  0.00  0.00    -0.245 OA
ATOM     15  C   UNL     1      -5.547   3.232 -22.162  0.00  0.00    +0.337 A 
ATOM     16  C   UNL     1      -4.788   3.243 -20.889  0.00  0.00    +0.092 A 
ATOM     17  C   UNL     1      -3.445   3.277 -20.871  0.00  0.00    +0.018 A 
ATOM     18  C   UNL     1      -2.682   3.313 -22.114  0.00  0.00    +0.021 A 
ATOM     19  C   UNL     1      -1.274   3.324 -22.130  0.00  0.00    +0.061 A 
ATOM     20  C   UNL     1      -0.549   3.372 -23.361  0.00  0.00    +0.166 A 
ATOM     21  C   UNL     1      -1.319   3.396 -24.552  0.00  0.00    +0.162 A 
ATOM     22  C   UNL     1      -2.727   3.381 -24.531  0.00  0.00    +0.096 A 
ATOM     23  C   UNL     1      -3.418   3.329 -23.312  0.00  0.00    +0.143 A 
ATOM     24  O   UNL     1      -4.797   3.282 -23.312  0.00  0.00    -0.422 OA
BRANCH  21  25
ATOM     25  O   UNL     1      -0.679   3.416 -25.759  0.00  0.00    -0.503 OA
ATOM     26  H   UNL     1      -0.175   4.166 -26.009  0.00  0.00    +0.292 HD
ENDBRANCH  21  25
ENDBRANCH  13  20
ENDBRANCH   1  13
BRANCH   3  27
ATOM     27  C   UNL     1       5.318   0.584 -21.302  0.00  0.00    +0.190 C 
BRANCH  27  28
ATOM     28  O   UNL     1       6.193   0.596 -22.409  0.00  0.00    -0.392 OA
ATOM     29  H   UNL     1       7.103   0.728 -22.101  0.00  0.00    +0.210 HD
ENDBRANCH  27  28
ENDBRANCH   3  27
TORSDOF 8
ENDMDL
MODEL 5
REMARK VINA RESULT:    -7.719      1.884      9.082
REMARK INTER + INTRA:         -10.089
REMARK INTER:                  -9.548
REMARK INTRA:                  -0.541
REMARK UNBOUND:                -0.565
REMARK  Name = ZINC000000001368
REMARK  8 active torsions:
REMARK  status: ('A' for Active; 'I' for Inactive)
REMARK    1  A    between atoms: C_7  and  O_8
REMARK    2  A    between atoms: O_8  and  C_9
REMARK    3  A    between atoms: C_11  and  C_12
REMARK    4  A    between atoms: C_12  and  O_13
REMARK    5  A    between atoms: C_14  and  O_15
REMARK    6  A    between atoms: C_16  and  O_17
REMARK    7  A    between atoms: C_18  and  O_19
REMARK    8  A    between atoms: C_20  and  O_21
REMARK                            x       y       z     vdW  Elec       q    Type
REMARK                         _______ _______ _______ _____ _____    ______ ____
ROOT
ATOM      1  C   UNL     1      -1.402   4.356 -23.344  0.00  0.00    +0.339 C 
ATOM      2  O   UNL     1      -2.007   3.867 -24.572  0.00  0.00    -0.331 OA
ATOM      3  C   UNL     1      -3.379   4.038 -24.951  0.00  0.00    +0.179 C 
ATOM      4  C   UNL     1      -4.294   4.234 -23.728  0.00  0.00    +0.177 C 
ATOM      5  C   UNL     1      -3.819   3.365 -22.550  0.00  0.00    +0.180 C 
ATOM      6  C   UNL     1      -2.249   3.240 -22.406  0.00  0.00    +0.214 C 
ENDROOT
BRANCH   5   7
ATOM      7  O   UNL     1      -4.438   3.807 -21.357  0.00  0.00    -0.386 OA
ATOM      8  H   UNL     1      -3.835   3.672 -20.611  0.00  0.00    +0.210 HD
ENDBRANCH   5   7
BRANCH   4   9
ATOM      9  O   UNL     1      -5.667   4.002 -23.979  0.00  0.00    -0.386 OA
ATOM     10  H   UNL     1      -6.051   3.501 -23.241  0.00  0.00    +0.210 HD
ENDBRANCH   4   9
BRANCH   6  11
ATOM     11  O   UNL     1      -2.086   1.888 -22.837  0.00  0.00    -0.383 OA
ATOM     12  H   UNL     1      -1.278   1.519 -22.447  0.00  0.00    +0.210 HD
ENDBRANCH   6  11
BRANCH   1  13
ATOM     13  O   UNL     1       0.900   5.037 -23.234  0.00  0.00    -0.457 OA
BRANCH  13  20
ATOM     14  O   UNL     1       8.452   3.167 -23.672  0.00  0.00    -0.245 OA
ATOM     15  C   UNL     1       7.351   3.668 -23.473  0.00  0.00    +0.337 A 
ATOM     16  C   UNL     1       7.197   5.018 -22.881  0.00  0.00    +0.092 A 
ATOM     17  C   UNL     1       5.986   5.569 -22.694  0.00  0.00    +0.018 A 
ATOM     18  C   UNL     1       4.772   4.850 -23.063  0.00  0.00    +0.021 A 
ATOM     19  C   UNL     1       3.489   5.409 -22.902  0.00  0.00    +0.061 A 
ATOM     20  C   UNL     1       2.314   4.678 -23.259  0.00  0.00    +0.166 A 
ATOM     21  C   UNL     1       2.510   3.377 -23.788  0.00  0.00    +0.162 A 
ATOM     22  C   UNL     1       3.794   2.823 -23.951  0.00  0.00    +0.096 A 
ATOM     23  C   UNL     1       4.935   3.559 -23.598  0.00  0.00    +0.143 A 
ATOM     24  O   UNL     1       6.186   3.013 -23.794  0.00  0.00    -0.422 OA
BRANCH  21  25
ATOM     25  O   UNL     1       1.424   2.642 -24.171  0.00  0.00    -0.503 OA
ATOM     26  H   UNL     1       0.825   2.986 -24.804  0.00  0.00    +0.292 HD
ENDBRANCH  21  25
ENDBRANCH  13  20
ENDBRANCH   1  13
BRANCH   3  27
ATOM     27  C   UNL     1      -3.703   2.803 -25.816  0.00  0.00    +0.190 C 
BRANCH  27  28
ATOM     28  O   UNL     1      -4.843   3.052 -26.609  0.00  0.00    -0.392 OA
ATOM     29  H   UNL     1      -5.575   2.491 -26.310  0.00  0.00    +0.210 HD
ENDBRANCH  27  28
ENDBRANCH   3  27
TORSDOF 8
ENDMDL
MODEL 6
REMARK VINA RESULT:    -7.559      1.789      8.939
REMARK INTER + INTRA:          -9.891
REMARK INTER:                  -9.627
REMARK INTRA:                  -0.264
REMARK UNBOUND:                -0.565
REMARK  Name = ZINC000000001368
REMARK  8 active torsions:
REMARK  status: ('A' for Active; 'I' for Inactive)
REMARK    1  A    between atoms: C_7  and  O_8
REMARK    2  A    between atoms: O_8  and  C_9
REMARK    3  A    between atoms: C_11  and  C_12
REMARK    4  A    between atoms: C_12  and  O_13
REMARK    5  A    between atoms: C_14  and  O_15
REMARK    6  A    between atoms: C_16  and  O_17
REMARK    7  A    between atoms: C_18  and  O_19
REMARK    8  A    between atoms: C_20  and  O_21
REMARK                            x       y       z     vdW  Elec       q    Type
REMARK                         _______ _______ _______ _____ _____    ______ ____
ROOT
ATOM      1  C   UNL     1      -1.242   2.709 -23.121  0.00  0.00    +0.339 C 
ATOM      2  O   UNL     1      -1.908   3.151 -21.907  0.00  0.00    -0.331 OA
ATOM      3  C   UNL     1      -3.305   3.000 -21.621  0.00  0.00    +0.179 C 
ATOM      4  C   UNL     1      -4.147   2.895 -22.905  0.00  0.00    +0.177 C 
ATOM      5  C   UNL     1      -3.579   3.809 -24.004  0.00  0.00    +0.180 C 
ATOM      6  C   UNL     1      -2.000   3.897 -24.047  0.00  0.00    +0.214 C 
ENDROOT
BRANCH   5   7
ATOM      7  O   UNL     1      -4.134   3.447 -25.254  0.00  0.00    -0.386 OA
ATOM      8  H   UNL     1      -4.068   2.488 -25.372  0.00  0.00    +0.210 HD
ENDBRANCH   5   7
BRANCH   4   9
ATOM      9  O   UNL     1      -5.527   3.152 -22.726  0.00  0.00    -0.386 OA
ATOM     10  H   UNL     1      -6.011   2.311 -22.688  0.00  0.00    +0.210 HD
ENDBRANCH   4   9
BRANCH   6  11
ATOM     11  O   UNL     1      -1.830   5.219 -23.535  0.00  0.00    -0.383 OA
ATOM     12  H   UNL     1      -1.264   5.191 -22.748  0.00  0.00    +0.210 HD
ENDBRANCH   6  11
BRANCH   1  13
ATOM     13  O   UNL     1       1.045   1.969 -23.128  0.00  0.00    -0.457 OA
BRANCH  13  20
ATOM     14  O   UNL     1       8.662   3.610 -23.016  0.00  0.00    -0.245 OA
ATOM     15  C   UNL     1       7.436   3.609 -23.009  0.00  0.00    +0.337 A 
ATOM     16  C   UNL     1       6.648   4.863 -23.050  0.00  0.00    +0.092 A 
ATOM     17  C   UNL     1       5.305   4.849 -23.071  0.00  0.00    +0.018 A 
ATOM     18  C   UNL     1       4.570   3.589 -23.046  0.00  0.00    +0.021 A 
ATOM     19  C   UNL     1       3.163   3.539 -23.091  0.00  0.00    +0.061 A 
ATOM     20  C   UNL     1       2.466   2.292 -23.053  0.00  0.00    +0.166 A 
ATOM     21  C   UNL     1       3.262   1.120 -22.978  0.00  0.00    +0.162 A 
ATOM     22  C   UNL     1       4.668   1.175 -22.936  0.00  0.00    +0.096 A 
ATOM     23  C   UNL     1       5.333   2.410 -22.980  0.00  0.00    +0.143 A 
ATOM     24  O   UNL     1       6.711   2.442 -22.971  0.00  0.00    -0.422 OA
BRANCH  21  25
ATOM     25  O   UNL     1       2.650  -0.101 -22.963  0.00  0.00    -0.503 OA
ATOM     26  H   UNL     1       1.754  -0.173 -22.697  0.00  0.00    +0.292 HD
ENDBRANCH  21  25
ENDBRANCH  13  20
ENDBRANCH   1  13
BRANCH   3  27
ATOM     27  C   UNL     1      -3.650   4.197 -20.713  0.00  0.00    +0.190 C 
BRANCH  27  28
ATOM     28  O   UNL     1      -3.217   3.948 -19.393  0.00  0.00    -0.392 OA
ATOM     29  H   UNL     1      -2.528   4.587 -19.153  0.00  0.00    +0.210 HD
ENDBRANCH  27  28
ENDBRANCH   3  27
TORSDOF 8
ENDMDL
MODEL 7
REMARK VINA RESULT:    -7.527      3.154      4.913
REMARK INTER + INTRA:          -9.852
REMARK INTER:                  -9.281
REMARK INTRA:                  -0.571
REMARK UNBOUND:                -0.565
REMARK  Name = ZINC000000001368
REMARK  8 active torsions:
REMARK  status: ('A' for Active; 'I' for Inactive)
REMARK    1  A    between atoms: C_7  and  O_8
REMARK    2  A    between atoms: O_8  and  C_9
REMARK    3  A    between atoms: C_11  and  C_12
REMARK    4  A    between atoms: C_12  and  O_13
REMARK    5  A    between atoms: C_14  and  O_15
REMARK    6  A    between atoms: C_16  and  O_17
REMARK    7  A    between atoms: C_18  and  O_19
REMARK    8  A    between atoms: C_20  and  O_21
REMARK                            x       y       z     vdW  Elec       q    Type
REMARK                         _______ _______ _______ _____ _____    ______ ____
ROOT
ATOM      1  C   UNL     1       5.449   6.912 -22.070  0.00  0.00    +0.339 C 
ATOM      2  O   UNL     1       4.879   8.202 -21.719  0.00  0.00    -0.331 OA
ATOM      3  C   UNL     1       5.556   9.463 -21.803  0.00  0.00    +0.179 C 
ATOM      4  C   UNL     1       7.084   9.303 -21.708  0.00  0.00    +0.177 C 
ATOM      5  C   UNL     1       7.453   8.183 -20.719  0.00  0.00    +0.180 C 
ATOM      6  C   UNL     1       6.482   6.934 -20.738  0.00  0.00    +0.214 C 
ENDROOT
BRANCH   5   7
ATOM      7  O   UNL     1       8.807   7.818 -20.901  0.00  0.00    -0.386 OA
ATOM      8  H   UNL     1       9.182   8.323 -21.639  0.00  0.00    +0.210 HD
ENDBRANCH   5   7
BRANCH   4   9
ATOM      9  O   UNL     1       7.780  10.490 -21.376  0.00  0.00    -0.386 OA
ATOM     10  H   UNL     1       8.012  10.967 -22.189  0.00  0.00    +0.210 HD
ENDBRANCH   4   9
BRANCH   6  11
ATOM     11  O   UNL     1       5.811   7.146 -19.495  0.00  0.00    -0.383 OA
ATOM     12  H   UNL     1       6.363   6.814 -18.769  0.00  0.00    +0.210 HD
ENDBRANCH   6  11
BRANCH   1  13
ATOM     13  O   UNL     1       4.115   5.123 -22.963  0.00  0.00    -0.457 OA
BRANCH  13  20
ATOM     14  O   UNL     1      -2.893   2.206 -24.726  0.00  0.00    -0.245 OA
ATOM     15  C   UNL     1      -1.920   2.888 -24.422  0.00  0.00    +0.337 A 
ATOM     16  C   UNL     1      -2.056   4.292 -23.969  0.00  0.00    +0.092 A 
ATOM     17  C   UNL     1      -0.986   5.022 -23.610  0.00  0.00    +0.018 A 
ATOM     18  C   UNL     1       0.357   4.454 -23.661  0.00  0.00    +0.021 A 
ATOM     19  C   UNL     1       1.496   5.183 -23.269  0.00  0.00    +0.061 A 
ATOM     20  C   UNL     1       2.803   4.608 -23.341  0.00  0.00    +0.166 A 
ATOM     21  C   UNL     1       2.885   3.273 -23.814  0.00  0.00    +0.162 A 
ATOM     22  C   UNL     1       1.744   2.547 -24.202  0.00  0.00    +0.096 A 
ATOM     23  C   UNL     1       0.470   3.129 -24.119  0.00  0.00    +0.143 A 
ATOM     24  O   UNL     1      -0.641   2.391 -24.472  0.00  0.00    -0.422 OA
BRANCH  21  25
ATOM     25  O   UNL     1       4.107   2.664 -23.880  0.00  0.00    -0.503 OA
ATOM     26  H   UNL     1       4.438   2.198 -23.138  0.00  0.00    +0.292 HD
ENDBRANCH  21  25
ENDBRANCH  13  20
ENDBRANCH   1  13
BRANCH   3  27
ATOM     27  C   UNL     1       4.921  10.323 -20.693  0.00  0.00    +0.190 C 
BRANCH  27  28
ATOM     28  O   UNL     1       4.029   9.546 -19.925  0.00  0.00    -0.392 OA
ATOM     29  H   UNL     1       3.299   9.241 -20.487  0.00  0.00    +0.210 HD
ENDBRANCH  27  28
ENDBRANCH   3  27
TORSDOF 8
ENDMDL
MODEL 8
REMARK VINA RESULT:    -7.269      1.811      2.888
REMARK INTER + INTRA:          -9.533
REMARK INTER:                  -9.141
REMARK INTRA:                  -0.392
REMARK UNBOUND:                -0.565
REMARK  Name = ZINC000000001368
REMARK  8 active torsions:
REMARK  status: ('A' for Active; 'I' for Inactive)
REMARK    1  A    between atoms: C_7  and  O_8
REMARK    2  A    between atoms: O_8  and  C_9
REMARK    3  A    between atoms: C_11  and  C_12
REMARK    4  A    between atoms: C_12  and  O_13
REMARK    5  A    between atoms: C_14  and  O_15
REMARK    6  A    between atoms: C_16  and  O_17
REMARK    7  A    between atoms: C_18  and  O_19
REMARK    8  A    between atoms: C_20  and  O_21
REMARK                            x       y       z     vdW  Elec       q    Type
REMARK                         _______ _______ _______ _____ _____    ______ ____
ROOT
ATOM      1  C   UNL     1       4.776   3.404 -22.944  0.00  0.00    +0.339 C 
ATOM      2  O   UNL     1       5.697   3.739 -24.018  0.00  0.00    -0.331 OA
ATOM      3  C   UNL     1       7.127   3.671 -23.941  0.00  0.00    +0.179 C 
ATOM      4  C   UNL     1       7.632   3.805 -22.493  0.00  0.00    +0.177 C 
ATOM      5  C   UNL     1       6.766   4.804 -21.705  0.00  0.00    +0.180 C 
ATOM      6  C   UNL     1       5.223   4.762 -22.050  0.00  0.00    +0.214 C 
ENDROOT
BRANCH   5   7
ATOM      7  O   UNL     1       7.015   4.657 -20.321  0.00  0.00    -0.386 OA
ATOM      8  H   UNL     1       6.185   4.453 -19.863  0.00  0.00    +0.210 HD
ENDBRANCH   5   7
BRANCH   4   9
ATOM      9  O   UNL     1       8.999   4.153 -22.377  0.00  0.00    -0.386 OA
ATOM     10  H   UNL     1       9.395   3.669 -21.635  0.00  0.00    +0.210 HD
ENDBRANCH   4   9
BRANCH   6  11
ATOM     11  O   UNL     1       5.117   5.987 -22.776  0.00  0.00    -0.383 OA
ATOM     12  H   UNL     1       5.540   5.887 -23.643  0.00  0.00    +0.210 HD
ENDBRANCH   6  11
BRANCH   1  13
ATOM     13  O   UNL     1       2.599   2.479 -23.367  0.00  0.00    -0.457 OA
BRANCH  13  20
ATOM     14  O   UNL     1      -5.116   3.332 -22.660  0.00  0.00    -0.245 OA
ATOM     15  C   UNL     1      -3.936   3.321 -22.997  0.00  0.00    +0.337 A 
ATOM     16  C   UNL     1      -3.452   4.059 -24.187  0.00  0.00    +0.092 A 
ATOM     17  C   UNL     1      -2.153   4.064 -24.531  0.00  0.00    +0.018 A 
ATOM     18  C   UNL     1      -1.168   3.333 -23.742  0.00  0.00    +0.021 A 
ATOM     19  C   UNL     1       0.204   3.338 -24.060  0.00  0.00    +0.061 A 
ATOM     20  C   UNL     1       1.147   2.603 -23.278  0.00  0.00    +0.166 A 
ATOM     21  C   UNL     1       0.631   1.884 -22.169  0.00  0.00    +0.162 A 
ATOM     22  C   UNL     1      -0.740   1.884 -21.852  0.00  0.00    +0.096 A 
ATOM     23  C   UNL     1      -1.649   2.617 -22.630  0.00  0.00    +0.143 A 
ATOM     24  O   UNL     1      -2.984   2.632 -22.286  0.00  0.00    -0.422 OA
BRANCH  21  25
ATOM     25  O   UNL     1       1.491   1.183 -21.371  0.00  0.00    -0.503 OA
ATOM     26  H   UNL     1       2.292   1.578 -21.086  0.00  0.00    +0.292 HD
ENDBRANCH  21  25
ENDBRANCH  13  20
ENDBRANCH   1  13
BRANCH   3  27
ATOM     27  C   UNL     1       7.624   4.764 -24.908  0.00  0.00    +0.190 C 
BRANCH  27  28
ATOM     28  O   UNL     1       7.601   6.023 -24.271  0.00  0.00    -0.392 OA
ATOM     29  H   UNL     1       6.730   6.432 -24.393  0.00  0.00    +0.210 HD
ENDBRANCH  27  28
ENDBRANCH   3  27
TORSDOF 8
ENDMDL
MODEL 9
REMARK VINA RESULT:    -7.151      3.960      8.454
REMARK INTER + INTRA:          -9.388
REMARK INTER:                  -8.823
REMARK INTRA:                  -0.565
REMARK UNBOUND:                -0.565
REMARK  Name = ZINC000000001368
REMARK  8 active torsions:
REMARK  status: ('A' for Active; 'I' for Inactive)
REMARK    1  A    between atoms: C_7  and  O_8
REMARK    2  A    between atoms: O_8  and  C_9
REMARK    3  A    between atoms: C_11  and  C_12
REMARK    4  A    between atoms: C_12  and  O_13
REMARK    5  A    between atoms: C_14  and  O_15
REMARK    6  A    between atoms: C_16  and  O_17
REMARK    7  A    between atoms: C_18  and  O_19
REMARK    8  A    between atoms: C_20  and  O_21
REMARK                            x       y       z     vdW  Elec       q    Type
REMARK                         _______ _______ _______ _____ _____    ______ ____
ROOT
ATOM      1  C   UNL     1       3.428   3.706 -22.702  0.00  0.00    +0.339 C 
ATOM      2  O   UNL     1       2.264   3.726 -23.575  0.00  0.00    -0.331 OA
ATOM      3  C   UNL     1       1.050   2.996 -23.361  0.00  0.00    +0.179 C 
ATOM      4  C   UNL     1       1.277   1.743 -22.494  0.00  0.00    +0.177 C 
ATOM      5  C   UNL     1       2.635   1.096 -22.819  0.00  0.00    +0.180 C 
ATOM      6  C   UNL     1       3.801   2.118 -23.130  0.00  0.00    +0.214 C 
ENDROOT
BRANCH   5   7
ATOM      7  O   UNL     1       2.978   0.179 -21.798  0.00  0.00    -0.386 OA
ATOM      8  H   UNL     1       2.612   0.483 -20.954  0.00  0.00    +0.210 HD
ENDBRANCH   5   7
BRANCH   4   9
ATOM      9  O   UNL     1       0.247   0.776 -22.577  0.00  0.00    -0.386 OA
ATOM     10  H   UNL     1       0.236   0.244 -21.765  0.00  0.00    +0.210 HD
ENDBRANCH   4   9
BRANCH   6  11
ATOM     11  O   UNL     1       3.915   1.915 -24.539  0.00  0.00    -0.383 OA
ATOM     12  H   UNL     1       4.817   1.628 -24.753  0.00  0.00    +0.210 HD
ENDBRANCH   6  11
BRANCH   1  13
ATOM     13  O   UNL     1       4.864   5.615 -22.441  0.00  0.00    -0.457 OA
BRANCH  13  20
ATOM     14  O   UNL     1       6.011  13.035 -20.353  0.00  0.00    -0.245 OA
ATOM     15  C   UNL     1       5.588  11.947 -20.729  0.00  0.00    +0.337 A 
ATOM     16  C   UNL     1       4.234  11.788 -21.310  0.00  0.00    +0.092 A 
ATOM     17  C   UNL     1       3.792  10.596 -21.745  0.00  0.00    +0.018 A 
ATOM     18  C   UNL     1       4.632   9.408 -21.651  0.00  0.00    +0.021 A 
ATOM     19  C   UNL     1       4.207   8.149 -22.120  0.00  0.00    +0.061 A 
ATOM     20  C   UNL     1       5.044   6.996 -22.005  0.00  0.00    +0.166 A 
ATOM     21  C   UNL     1       6.317   7.191 -21.410  0.00  0.00    +0.162 A 
ATOM     22  C   UNL     1       6.739   8.452 -20.946  0.00  0.00    +0.096 A 
ATOM     23  C   UNL     1       5.903   9.571 -21.073  0.00  0.00    +0.143 A 
ATOM     24  O   UNL     1       6.346  10.804 -20.642  0.00  0.00    -0.422 OA
BRANCH  21  25
ATOM     25  O   UNL     1       7.169   6.129 -21.297  0.00  0.00    -0.503 OA
ATOM     26  H   UNL     1       8.092   6.276 -21.224  0.00  0.00    +0.292 HD
ENDBRANCH  21  25
ENDBRANCH  13  20
ENDBRANCH   1  13
BRANCH   3  27
ATOM     27  C   UNL     1       0.505   2.717 -24.776  0.00  0.00    +0.190 C 
BRANCH  27  28
ATOM     28  O   UNL     1       1.487   3.019 -25.743  0.00  0.00    -0.392 OA
ATOM     29  H   UNL     1       2.347   3.130 -25.307  0.00  0.00    +0.210 HD
ENDBRANCH  27  28
ENDBRANCH   3  27
TORSDOF 8
ENDMDL
