MODEL 1
REMARK VINA RESULT:    -5.629      0.000      0.000
REMARK INTER + INTRA:          -6.683
REMARK INTER:                  -6.300
REMARK INTRA:                  -0.382
REMARK UNBOUND:                -0.396
REMARK  Name = ZINC000001530365
REMARK  3 active torsions:
REMARK  status: ('A' for Active; 'I' for Inactive)
REMARK    1  A    between atoms: C_1  and  C_2
REMARK    2  A    between atoms: C_2  and  C_4
REMARK    3  A    between atoms: C_4  and  C_5
REMARK                            x       y       z     vdW  Elec       q    Type
REMARK                         _______ _______ _______ _____ _____    ______ ____
ROOT
ATOM      1  C   UNL     1      -3.959   3.772 -23.627  0.00  0.00    +0.070 C 
ATOM      2  C   UNL     1      -5.201   3.752 -23.244  0.00  0.00    +0.055 C 
ATOM      3  C   UNL     1      -5.523   3.195 -22.114  0.00  0.00    +0.011 C 
ATOM      4  C   UNL     1      -4.604   2.658 -21.368  0.00  0.00    +0.051 C 
ATOM      5  C   UNL     1      -3.362   2.679 -21.752  0.00  0.00    +0.129 C 
ATOM      6  N   UNL     1      -3.039   3.236 -22.881  0.00  0.00    +0.229 N 
ATOM      7  H   UNL     1      -2.709   2.451 -23.444  0.00  0.00    +0.202 HD
ATOM      8  H   UNL     1      -2.368   3.973 -22.665  0.00  0.00    +0.202 HD
ENDROOT
BRANCH   1   9
ATOM      9  C   UNL     1      -3.637   4.330 -24.757  0.00  0.00    +0.128 C 
BRANCH   9  11
ATOM     10  C   UNL     1      -3.440   3.327 -26.763  0.00  0.00    +0.086 C 
ATOM     11  C   UNL     1      -2.921   3.676 -25.624  0.00  0.00    +0.136 C 
ATOM     12  O   UNL     1      -1.687   3.372 -25.351  0.00  0.00    -0.297 OA
ENDBRANCH   9  11
ENDBRANCH   1   9
TORSDOF 2
ENDMDL
MODEL 2
REMARK VINA RESULT:    -5.623      1.738      3.163
REMARK INTER + INTRA:          -6.676
REMARK INTER:                  -6.260
REMARK INTRA:                  -0.416
REMARK UNBOUND:                -0.396
REMARK  Name = ZINC000001530365
REMARK  3 active torsions:
REMARK  status: ('A' for Active; 'I' for Inactive)
REMARK    1  A    between atoms: C_1  and  C_2
REMARK    2  A    between atoms: C_2  and  C_4
REMARK    3  A    between atoms: C_4  and  C_5
REMARK                            x       y       z     vdW  Elec       q    Type
REMARK                         _______ _______ _______ _____ _____    ______ ____
ROOT
ATOM      1  C   UNL     1      -2.979   3.257 -22.128  0.00  0.00    +0.070 C 
ATOM      2  C   UNL     1      -3.882   2.922 -21.255  0.00  0.00    +0.055 C 
ATOM      3  C   UNL     1      -5.144   3.019 -21.555  0.00  0.00    +0.011 C 
ATOM      4  C   UNL     1      -5.502   3.451 -22.728  0.00  0.00    +0.051 C 
ATOM      5  C   UNL     1      -4.598   3.786 -23.600  0.00  0.00    +0.129 C 
ATOM      6  N   UNL     1      -3.337   3.689 -23.300  0.00  0.00    +0.229 N 
ATOM      7  H   UNL     1      -3.021   4.659 -23.300  0.00  0.00    +0.202 HD
ATOM      8  H   UNL     1      -2.918   3.060 -23.986  0.00  0.00    +0.202 HD
ENDROOT
BRANCH   1   9
ATOM      9  C   UNL     1      -1.718   3.160 -21.827  0.00  0.00    +0.128 C 
BRANCH   9  11
ATOM     10  C   UNL     1      -0.435   1.375 -21.343  0.00  0.00    +0.086 C 
ATOM     11  C   UNL     1      -1.034   2.126 -22.218  0.00  0.00    +0.136 C 
ATOM     12  O   UNL     1      -0.949   1.843 -23.484  0.00  0.00    -0.297 OA
ENDBRANCH   9  11
ENDBRANCH   1   9
TORSDOF 2
ENDMDL
MODEL 3
REMARK VINA RESULT:    -5.610      1.688      3.726
REMARK INTER + INTRA:          -6.662
REMARK INTER:                  -6.309
REMARK INTRA:                  -0.353
REMARK UNBOUND:                -0.396
REMARK  Name = ZINC000001530365
REMARK  3 active torsions:
REMARK  status: ('A' for Active; 'I' for Inactive)
REMARK    1  A    between atoms: C_1  and  C_2
REMARK    2  A    between atoms: C_2  and  C_4
REMARK    3  A    between atoms: C_4  and  C_5
REMARK                            x       y       z     vdW  Elec       q    Type
REMARK                         _______ _______ _______ _____ _____    ______ ____
ROOT
ATOM      1  C   UNL     1      -4.106   3.429 -22.932  0.00  0.00    +0.070 C 
ATOM      2  C   UNL     1      -5.200   3.765 -23.550  0.00  0.00    +0.055 C 
ATOM      3  C   UNL     1      -5.139   4.311 -24.728  0.00  0.00    +0.011 C 
ATOM      4  C   UNL     1      -3.985   4.521 -25.289  0.00  0.00    +0.051 C 
ATOM      5  C   UNL     1      -2.892   4.184 -24.671  0.00  0.00    +0.129 C 
ATOM      6  N   UNL     1      -2.952   3.638 -23.493  0.00  0.00    +0.229 N 
ATOM      7  H   UNL     1      -2.521   4.338 -22.888  0.00  0.00    +0.202 HD
ATOM      8  H   UNL     1      -2.491   2.731 -23.564  0.00  0.00    +0.202 HD
ENDROOT
BRANCH   1   9
ATOM      9  C   UNL     1      -4.167   2.883 -21.754  0.00  0.00    +0.128 C 
BRANCH   9  11
ATOM     10  C   UNL     1      -3.116   3.662 -19.922  0.00  0.00    +0.086 C 
ATOM     11  C   UNL     1      -3.127   2.900 -20.975  0.00  0.00    +0.136 C 
ATOM     12  O   UNL     1      -2.098   2.155 -21.248  0.00  0.00    -0.297 OA
ENDBRANCH   9  11
ENDBRANCH   1   9
TORSDOF 2
ENDMDL
MODEL 4
REMARK VINA RESULT:    -5.469      1.733      2.152
REMARK INTER + INTRA:          -6.504
REMARK INTER:                  -6.125
REMARK INTRA:                  -0.379
REMARK UNBOUND:                -0.396
REMARK  Name = ZINC000001530365
REMARK  3 active torsions:
REMARK  status: ('A' for Active; 'I' for Inactive)
REMARK    1  A    between atoms: C_1  and  C_2
REMARK    2  A    between atoms: C_2  and  C_4
REMARK    3  A    between atoms: C_4  and  C_5
REMARK                            x       y       z     vdW  Elec       q    Type
REMARK                         _______ _______ _______ _____ _____    ______ ____
ROOT
ATOM      1  C   UNL     1      -3.219   3.063 -23.685  0.00  0.00    +0.070 C 
ATOM      2  C   UNL     1      -4.264   3.653 -24.184  0.00  0.00    +0.055 C 
ATOM      3  C   UNL     1      -5.324   3.826 -23.451  0.00  0.00    +0.011 C 
ATOM      4  C   UNL     1      -5.338   3.410 -22.220  0.00  0.00    +0.051 C 
ATOM      5  C   UNL     1      -4.293   2.820 -21.722  0.00  0.00    +0.129 C 
ATOM      6  N   UNL     1      -3.233   2.647 -22.454  0.00  0.00    +0.229 N 
ATOM      7  H   UNL     1      -3.177   1.632 -22.548  0.00  0.00    +0.202 HD
ATOM      8  H   UNL     1      -2.464   3.116 -21.975  0.00  0.00    +0.202 HD
ENDROOT
BRANCH   1   9
ATOM      9  C   UNL     1      -2.159   2.890 -24.418  0.00  0.00    +0.128 C 
BRANCH   9  11
ATOM     10  C   UNL     1      -0.348   4.101 -23.853  0.00  0.00    +0.086 C 
ATOM     11  C   UNL     1      -0.978   2.965 -23.881  0.00  0.00    +0.136 C 
ATOM     12  O   UNL     1      -0.426   1.903 -23.372  0.00  0.00    -0.297 OA
ENDBRANCH   9  11
ENDBRANCH   1   9
TORSDOF 2
ENDMDL
MODEL 5
REMARK VINA RESULT:    -5.427      1.603      2.328
REMARK INTER + INTRA:          -6.458
REMARK INTER:                  -6.070
REMARK INTRA:                  -0.388
REMARK UNBOUND:                -0.396
REMARK  Name = ZINC000001530365
REMARK  3 active torsions:
REMARK  status: ('A' for Active; 'I' for Inactive)
REMARK    1  A    between atoms: C_1  and  C_2
REMARK    2  A    between atoms: C_2  and  C_4
REMARK    3  A    between atoms: C_4  and  C_5
REMARK                            x       y       z     vdW  Elec       q    Type
REMARK                         _______ _______ _______ _____ _____    ______ ____
ROOT
ATOM      1  C   UNL     1      -3.031   3.015 -22.930  0.00  0.00    +0.070 C 
ATOM      2  C   UNL     1      -3.372   2.637 -21.734  0.00  0.00    +0.055 C 
ATOM      3  C   UNL     1      -4.601   2.779 -21.333  0.00  0.00    +0.011 C 
ATOM      4  C   UNL     1      -5.488   3.299 -22.129  0.00  0.00    +0.051 C 
ATOM      5  C   UNL     1      -5.146   3.677 -23.324  0.00  0.00    +0.129 C 
ATOM      6  N   UNL     1      -3.918   3.535 -23.726  0.00  0.00    +0.229 N 
ATOM      7  H   UNL     1      -3.597   4.497 -23.840  0.00  0.00    +0.202 HD
ATOM      8  H   UNL     1      -3.947   2.948 -24.559  0.00  0.00    +0.202 HD
ENDROOT
BRANCH   1   9
ATOM      9  C   UNL     1      -1.802   2.873 -23.331  0.00  0.00    +0.128 C 
BRANCH   9  11
ATOM     10  C   UNL     1      -0.607   4.773 -23.501  0.00  0.00    +0.086 C 
ATOM     11  C   UNL     1      -1.247   3.792 -24.064  0.00  0.00    +0.136 C 
ATOM     12  O   UNL     1      -1.332   3.730 -25.360  0.00  0.00    -0.297 OA
ENDBRANCH   9  11
ENDBRANCH   1   9
TORSDOF 2
ENDMDL
MODEL 6
REMARK VINA RESULT:    -5.136      2.959      4.220
REMARK INTER + INTRA:          -6.133
REMARK INTER:                  -5.720
REMARK INTRA:                  -0.412
REMARK UNBOUND:                -0.396
REMARK  Name = ZINC000001530365
REMARK  3 active torsions:
REMARK  status: ('A' for Active; 'I' for Inactive)
REMARK    1  A    between atoms: C_1  and  C_2
REMARK    2  A    between atoms: C_2  and  C_4
REMARK    3  A    between atoms: C_4  and  C_5
REMARK                            x       y       z     vdW  Elec       q    Type
REMARK                         _______ _______ _______ _____ _____    ______ ____
ROOT
ATOM      1  C   UNL     1      -2.162   3.508 -21.640  0.00  0.00    +0.070 C 
ATOM      2  C   UNL     1      -1.643   4.338 -22.496  0.00  0.00    +0.055 C 
ATOM      3  C   UNL     1      -0.509   4.057 -23.067  0.00  0.00    +0.011 C 
ATOM      4  C   UNL     1       0.106   2.947 -22.781  0.00  0.00    +0.051 C 
ATOM      5  C   UNL     1      -0.415   2.119 -21.925  0.00  0.00    +0.129 C 
ATOM      6  N   UNL     1      -1.548   2.399 -21.355  0.00  0.00    +0.229 N 
ATOM      7  H   UNL     1      -1.294   2.517 -20.374  0.00  0.00    +0.202 HD
ATOM      8  H   UNL     1      -2.190   1.640 -21.585  0.00  0.00    +0.202 HD
ENDROOT
BRANCH   1   9
ATOM      9  C   UNL     1      -3.297   3.789 -21.070  0.00  0.00    +0.128 C 
BRANCH   9  11
ATOM     10  C   UNL     1      -5.251   3.420 -22.124  0.00  0.00    +0.086 C 
ATOM     11  C   UNL     1      -4.336   3.038 -21.284  0.00  0.00    +0.136 C 
ATOM     12  O   UNL     1      -4.460   1.906 -20.658  0.00  0.00    -0.297 OA
ENDBRANCH   9  11
ENDBRANCH   1   9
TORSDOF 2
ENDMDL
MODEL 7
REMARK VINA RESULT:    -5.068      2.449      3.999
REMARK INTER + INTRA:          -6.056
REMARK INTER:                  -5.658
REMARK INTRA:                  -0.399
REMARK UNBOUND:                -0.396
REMARK  Name = ZINC000001530365
REMARK  3 active torsions:
REMARK  status: ('A' for Active; 'I' for Inactive)
REMARK    1  A    between atoms: C_1  and  C_2
REMARK    2  A    between atoms: C_2  and  C_4
REMARK    3  A    between atoms: C_4  and  C_5
REMARK                            x       y       z     vdW  Elec       q    Type
REMARK                         _______ _______ _______ _____ _____    ______ ____
ROOT
ATOM      1  C   UNL     1      -2.161   4.010 -24.013  0.00  0.00    +0.070 C 
ATOM      2  C   UNL     1      -1.505   3.537 -25.031  0.00  0.00    +0.055 C 
ATOM      3  C   UNL     1      -0.226   3.748 -25.135  0.00  0.00    +0.011 C 
ATOM      4  C   UNL     1       0.396   4.433 -24.222  0.00  0.00    +0.051 C 
ATOM      5  C   UNL     1      -0.261   4.906 -23.204  0.00  0.00    +0.129 C 
ATOM      6  N   UNL     1      -1.539   4.695 -23.100  0.00  0.00    +0.229 N 
ATOM      7  H   UNL     1      -1.939   5.628 -23.193  0.00  0.00    +0.202 HD
ATOM      8  H   UNL     1      -1.686   4.207 -22.216  0.00  0.00    +0.202 HD
ENDROOT
BRANCH   1   9
ATOM      9  C   UNL     1      -3.440   3.799 -23.909  0.00  0.00    +0.128 C 
BRANCH   9  11
ATOM     10  C   UNL     1      -5.159   3.460 -22.496  0.00  0.00    +0.086 C 
ATOM     11  C   UNL     1      -3.923   3.249 -22.835  0.00  0.00    +0.136 C 
ATOM     12  O   UNL     1      -3.169   2.486 -22.100  0.00  0.00    -0.297 OA
ENDBRANCH   9  11
ENDBRANCH   1   9
TORSDOF 2
ENDMDL
MODEL 8
REMARK VINA RESULT:    -5.055      3.209      4.942
REMARK INTER + INTRA:          -6.042
REMARK INTER:                  -5.645
REMARK INTRA:                  -0.396
REMARK UNBOUND:                -0.396
REMARK  Name = ZINC000001530365
REMARK  3 active torsions:
REMARK  status: ('A' for Active; 'I' for Inactive)
REMARK    1  A    between atoms: C_1  and  C_2
REMARK    2  A    between atoms: C_2  and  C_4
REMARK    3  A    between atoms: C_4  and  C_5
REMARK                            x       y       z     vdW  Elec       q    Type
REMARK                         _______ _______ _______ _____ _____    ______ ____
ROOT
ATOM      1  C   UNL     1      -1.039   2.175 -21.885  0.00  0.00    +0.070 C 
ATOM      2  C   UNL     1      -0.146   1.427 -21.307  0.00  0.00    +0.055 C 
ATOM      3  C   UNL     1       1.093   1.472 -21.701  0.00  0.00    +0.011 C 
ATOM      4  C   UNL     1       1.438   2.265 -22.672  0.00  0.00    +0.051 C 
ATOM      5  C   UNL     1       0.544   3.012 -23.249  0.00  0.00    +0.129 C 
ATOM      6  N   UNL     1      -0.694   2.967 -22.856  0.00  0.00    +0.229 N 
ATOM      7  H   UNL     1      -1.181   2.576 -23.662  0.00  0.00    +0.202 HD
ATOM      8  H   UNL     1      -0.946   3.913 -22.568  0.00  0.00    +0.202 HD
ENDROOT
BRANCH   1   9
ATOM      9  C   UNL     1      -2.277   2.130 -21.491  0.00  0.00    +0.128 C 
BRANCH   9  11
ATOM     10  C   UNL     1      -3.152   3.886 -20.388  0.00  0.00    +0.086 C 
ATOM     11  C   UNL     1      -2.998   3.212 -21.488  0.00  0.00    +0.136 C 
ATOM     12  O   UNL     1      -3.565   3.618 -22.585  0.00  0.00    -0.297 OA
ENDBRANCH   9  11
ENDBRANCH   1   9
TORSDOF 2
ENDMDL
MODEL 9
REMARK VINA RESULT:    -4.925      3.537      4.378
REMARK INTER + INTRA:          -5.897
REMARK INTER:                  -5.501
REMARK INTRA:                  -0.396
REMARK UNBOUND:                -0.396
REMARK  Name = ZINC000001530365
REMARK  3 active torsions:
REMARK  status: ('A' for Active; 'I' for Inactive)
REMARK    1  A    between atoms: C_1  and  C_2
REMARK    2  A    between atoms: C_2  and  C_4
REMARK    3  A    between atoms: C_4  and  C_5
REMARK                            x       y       z     vdW  Elec       q    Type
REMARK                         _______ _______ _______ _____ _____    ______ ____
ROOT
ATOM      1  C   UNL     1      -0.463   2.097 -22.524  0.00  0.00    +0.070 C 
ATOM      2  C   UNL     1      -1.203   2.322 -21.479  0.00  0.00    +0.055 C 
ATOM      3  C   UNL     1      -2.440   2.697 -21.627  0.00  0.00    +0.011 C 
ATOM      4  C   UNL     1      -2.936   2.846 -22.819  0.00  0.00    +0.051 C 
ATOM      5  C   UNL     1      -2.195   2.620 -23.864  0.00  0.00    +0.129 C 
ATOM      6  N   UNL     1      -0.959   2.246 -23.716  0.00  0.00    +0.229 N 
ATOM      7  H   UNL     1      -0.430   3.032 -24.095  0.00  0.00    +0.202 HD
ATOM      8  H   UNL     1      -0.866   1.346 -24.189  0.00  0.00    +0.202 HD
ENDROOT
BRANCH   1   9
ATOM      9  C   UNL     1       0.773   1.722 -22.376  0.00  0.00    +0.128 C 
BRANCH   9  11
ATOM     10  C   UNL     1       2.448   3.130 -22.906  0.00  0.00    +0.086 C 
ATOM     11  C   UNL     1       1.680   2.128 -23.215  0.00  0.00    +0.136 C 
ATOM     12  O   UNL     1       1.819   1.532 -24.361  0.00  0.00    -0.297 OA
ENDBRANCH   9  11
ENDBRANCH   1   9
TORSDOF 2
ENDMDL
