MODEL 1
REMARK VINA RESULT:    -9.749      0.000      0.000
REMARK INTER + INTRA:         -12.261
REMARK INTER:                 -11.438
REMARK INTRA:                  -0.823
REMARK UNBOUND:                -0.803
REMARK  Name = ZINC000003581770
REMARK  5 active torsions:
REMARK  status: ('A' for Active; 'I' for Inactive)
REMARK    1  A    between atoms: C_1  and  C_2
REMARK    2  A    between atoms: C_3  and  O_4
REMARK    3  A    between atoms: C_5  and  C_6
REMARK    4  A    between atoms: C_10  and  O_11
REMARK    5  A    between atoms: C_15  and  C_16
REMARK                            x       y       z     vdW  Elec       q    Type
REMARK                         _______ _______ _______ _____ _____    ______ ____
ROOT
ATOM      1  C   UNL     1       4.248   1.125 -22.832  0.00  0.00    +0.051 C 
ATOM      2  C   UNL     1       3.025   1.516 -23.038  0.00  0.00    +0.034 A 
ATOM      3  C   UNL     1       2.688   2.013 -24.191  0.00  0.00    +0.137 A 
ATOM      4  C   UNL     1       1.466   2.404 -24.398  0.00  0.00    +0.098 A 
ATOM      5  C   UNL     1       0.581   2.299 -23.453  0.00  0.00    +0.149 A 
ATOM      6  C   UNL     1       0.918   1.802 -22.299  0.00  0.00    +0.102 A 
ATOM      7  C   UNL     1       0.033   1.697 -21.353  0.00  0.00    +0.174 C 
ATOM      8  C   UNL     1      -1.190   2.088 -21.560  0.00  0.00    +0.129 C 
ATOM      9  C   UNL     1      -1.527   2.585 -22.713  0.00  0.00    +0.211 C 
ATOM     10  O   UNL     1       0.371   1.200 -20.200  0.00  0.00    -0.292 OA
ATOM     11  O   UNL     1      -0.642   2.691 -23.659  0.00  0.00    -0.482 OA
ATOM     12  C   UNL     1       2.140   1.411 -22.092  0.00  0.00    +0.137 A 
ENDROOT
BRANCH   9  13
ATOM     13  C   UNL     1      -2.749   2.977 -22.920  0.00  0.00    -0.007 A 
ATOM     14  C   UNL     1      -3.122   3.341 -24.110  0.00  0.00    +0.007 A 
ATOM     15  C   UNL     1      -4.344   3.732 -24.318  0.00  0.00    +0.000 A 
ATOM     16  C   UNL     1      -5.194   3.760 -23.334  0.00  0.00    +0.000 A 
ATOM     17  C   UNL     1      -4.821   3.396 -22.143  0.00  0.00    +0.000 A 
ATOM     18  C   UNL     1      -3.598   3.004 -21.936  0.00  0.00    +0.007 A 
ENDBRANCH   9  13
BRANCH   4  19
ATOM     19  C   UNL     1       1.129   2.901 -25.551  0.00  0.00    +0.266 C 
ATOM     20  O   UNL     1       1.480   4.113 -25.866  0.00  0.00    -0.295 OA
ENDBRANCH   4  19
BRANCH   3  21
ATOM     21  O   UNL     1       3.573   2.118 -25.138  0.00  0.00    -0.506 OA
ATOM     22  H   UNL     1       4.445   1.803 -25.001  0.00  0.00    +0.292 HD
ENDBRANCH   3  21
BRANCH  12  23
ATOM     23  O   UNL     1       2.477   0.914 -20.939  0.00  0.00    -0.506 OA
ATOM     24  H   UNL     1       3.305   0.486 -20.837  0.00  0.00    +0.292 HD
ENDBRANCH  12  23
TORSDOF 4
ENDMDL
MODEL 2
REMARK VINA RESULT:    -9.387      1.052      3.212
REMARK INTER + INTRA:         -11.836
REMARK INTER:                 -11.128
REMARK INTRA:                  -0.709
REMARK UNBOUND:                -0.803
REMARK  Name = ZINC000003581770
REMARK  5 active torsions:
REMARK  status: ('A' for Active; 'I' for Inactive)
REMARK    1  A    between atoms: C_1  and  C_2
REMARK    2  A    between atoms: C_3  and  O_4
REMARK    3  A    between atoms: C_5  and  C_6
REMARK    4  A    between atoms: C_10  and  O_11
REMARK    5  A    between atoms: C_15  and  C_16
REMARK                            x       y       z     vdW  Elec       q    Type
REMARK                         _______ _______ _______ _____ _____    ______ ____
ROOT
ATOM      1  C   UNL     1       3.686   2.158 -24.005  0.00  0.00    +0.051 C 
ATOM      2  C   UNL     1       2.442   2.230 -23.631  0.00  0.00    +0.034 A 
ATOM      3  C   UNL     1       2.075   1.715 -22.495  0.00  0.00    +0.137 A 
ATOM      4  C   UNL     1       0.833   1.786 -22.120  0.00  0.00    +0.098 A 
ATOM      5  C   UNL     1      -0.043   2.372 -22.880  0.00  0.00    +0.149 A 
ATOM      6  C   UNL     1       0.324   2.887 -24.017  0.00  0.00    +0.102 A 
ATOM      7  C   UNL     1      -0.551   3.473 -24.777  0.00  0.00    +0.174 C 
ATOM      8  C   UNL     1      -1.795   3.544 -24.403  0.00  0.00    +0.129 C 
ATOM      9  C   UNL     1      -2.162   3.029 -23.267  0.00  0.00    +0.211 C 
ATOM     10  O   UNL     1      -0.184   3.989 -25.914  0.00  0.00    -0.292 OA
ATOM     11  O   UNL     1      -1.286   2.443 -22.506  0.00  0.00    -0.482 OA
ATOM     12  C   UNL     1       1.567   2.816 -24.392  0.00  0.00    +0.137 A 
ENDROOT
BRANCH   9  13
ATOM     13  C   UNL     1      -3.404   3.100 -22.892  0.00  0.00    -0.007 A 
ATOM     14  C   UNL     1      -3.760   2.636 -21.732  0.00  0.00    +0.007 A 
ATOM     15  C   UNL     1      -5.003   2.707 -21.356  0.00  0.00    +0.000 A 
ATOM     16  C   UNL     1      -5.890   3.242 -22.142  0.00  0.00    +0.000 A 
ATOM     17  C   UNL     1      -5.534   3.707 -23.303  0.00  0.00    +0.000 A 
ATOM     18  C   UNL     1      -4.291   3.636 -23.678  0.00  0.00    +0.007 A 
ENDBRANCH   9  13
BRANCH   4  19
ATOM     19  C   UNL     1       0.466   1.271 -20.984  0.00  0.00    +0.266 C 
ATOM     20  O   UNL     1       1.104   1.577 -19.894  0.00  0.00    -0.295 OA
ENDBRANCH   4  19
BRANCH   3  21
ATOM     21  O   UNL     1       2.952   1.128 -21.733  0.00  0.00    -0.506 OA
ATOM     22  H   UNL     1       3.079   0.201 -21.793  0.00  0.00    +0.292 HD
ENDBRANCH   3  21
BRANCH  12  23
ATOM     23  O   UNL     1       1.934   3.331 -25.527  0.00  0.00    -0.506 OA
ATOM     24  H   UNL     1       1.463   4.058 -25.886  0.00  0.00    +0.292 HD
ENDBRANCH  12  23
TORSDOF 4
ENDMDL
MODEL 3
REMARK VINA RESULT:    -9.237      2.048      6.504
REMARK INTER + INTRA:         -11.660
REMARK INTER:                 -10.844
REMARK INTRA:                  -0.816
REMARK UNBOUND:                -0.803
REMARK  Name = ZINC000003581770
REMARK  5 active torsions:
REMARK  status: ('A' for Active; 'I' for Inactive)
REMARK    1  A    between atoms: C_1  and  C_2
REMARK    2  A    between atoms: C_3  and  O_4
REMARK    3  A    between atoms: C_5  and  C_6
REMARK    4  A    between atoms: C_10  and  O_11
REMARK    5  A    between atoms: C_15  and  C_16
REMARK                            x       y       z     vdW  Elec       q    Type
REMARK                         _______ _______ _______ _____ _____    ______ ____
ROOT
ATOM      1  C   UNL     1      -5.557   4.040 -24.278  0.00  0.00    +0.051 C 
ATOM      2  C   UNL     1      -4.399   3.741 -23.766  0.00  0.00    +0.034 A 
ATOM      3  C   UNL     1      -4.295   3.495 -22.494  0.00  0.00    +0.137 A 
ATOM      4  C   UNL     1      -3.139   3.196 -21.982  0.00  0.00    +0.098 A 
ATOM      5  C   UNL     1      -2.086   3.144 -22.741  0.00  0.00    +0.149 A 
ATOM      6  C   UNL     1      -2.189   3.391 -24.014  0.00  0.00    +0.102 A 
ATOM      7  C   UNL     1      -1.136   3.339 -24.774  0.00  0.00    +0.174 C 
ATOM      8  C   UNL     1       0.021   3.041 -24.262  0.00  0.00    +0.129 C 
ATOM      9  C   UNL     1       0.125   2.794 -22.990  0.00  0.00    +0.211 C 
ATOM     10  O   UNL     1      -1.240   3.586 -26.047  0.00  0.00    -0.292 OA
ATOM     11  O   UNL     1      -0.928   2.846 -22.229  0.00  0.00    -0.482 OA
ATOM     12  C   UNL     1      -3.346   3.689 -24.526  0.00  0.00    +0.137 A 
ENDROOT
BRANCH   9  13
ATOM     13  C   UNL     1       1.282   2.496 -22.478  0.00  0.00    -0.007 A 
ATOM     14  C   UNL     1       2.352   3.105 -22.893  0.00  0.00    +0.007 A 
ATOM     15  C   UNL     1       3.510   2.807 -22.381  0.00  0.00    +0.000 A 
ATOM     16  C   UNL     1       3.596   1.899 -21.454  0.00  0.00    +0.000 A 
ATOM     17  C   UNL     1       2.526   1.290 -21.039  0.00  0.00    +0.000 A 
ATOM     18  C   UNL     1       1.368   1.588 -21.551  0.00  0.00    +0.007 A 
ENDBRANCH   9  13
BRANCH   4  19
ATOM     19  C   UNL     1      -3.035   2.950 -20.710  0.00  0.00    +0.266 C 
ATOM     20  O   UNL     1      -3.105   3.923 -19.850  0.00  0.00    -0.295 OA
ENDBRANCH   4  19
BRANCH   3  21
ATOM     21  O   UNL     1      -5.349   3.547 -21.733  0.00  0.00    -0.506 OA
ATOM     22  H   UNL     1      -6.146   3.914 -22.062  0.00  0.00    +0.292 HD
ENDBRANCH   3  21
BRANCH  12  23
ATOM     23  O   UNL     1      -3.450   3.936 -25.798  0.00  0.00    -0.506 OA
ATOM     24  H   UNL     1      -3.918   3.344 -26.354  0.00  0.00    +0.292 HD
ENDBRANCH  12  23
TORSDOF 4
ENDMDL
MODEL 4
REMARK VINA RESULT:    -9.006      2.159      3.486
REMARK INTER + INTRA:         -11.388
REMARK INTER:                 -10.583
REMARK INTRA:                  -0.805
REMARK UNBOUND:                -0.803
REMARK  Name = ZINC000003581770
REMARK  5 active torsions:
REMARK  status: ('A' for Active; 'I' for Inactive)
REMARK    1  A    between atoms: C_1  and  C_2
REMARK    2  A    between atoms: C_3  and  O_4
REMARK    3  A    between atoms: C_5  and  C_6
REMARK    4  A    between atoms: C_10  and  O_11
REMARK    5  A    between atoms: C_15  and  C_16
REMARK                            x       y       z     vdW  Elec       q    Type
REMARK                         _______ _______ _______ _____ _____    ______ ____
ROOT
ATOM      1  C   UNL     1       6.304   3.405 -22.926  0.00  0.00    +0.051 C 
ATOM      2  C   UNL     1       5.015   3.236 -22.968  0.00  0.00    +0.034 A 
ATOM      3  C   UNL     1       4.515   2.037 -22.914  0.00  0.00    +0.137 A 
ATOM      4  C   UNL     1       3.227   1.867 -22.956  0.00  0.00    +0.098 A 
ATOM      5  C   UNL     1       2.439   2.896 -23.051  0.00  0.00    +0.149 A 
ATOM      6  C   UNL     1       2.939   4.095 -23.105  0.00  0.00    +0.102 A 
ATOM      7  C   UNL     1       2.150   5.124 -23.200  0.00  0.00    +0.174 C 
ATOM      8  C   UNL     1       0.862   4.954 -23.242  0.00  0.00    +0.129 C 
ATOM      9  C   UNL     1       0.362   3.755 -23.188  0.00  0.00    +0.211 C 
ATOM     10  O   UNL     1       2.650   6.324 -23.253  0.00  0.00    -0.292 OA
ATOM     11  O   UNL     1       1.150   2.726 -23.093  0.00  0.00    -0.482 OA
ATOM     12  C   UNL     1       4.227   4.265 -23.063  0.00  0.00    +0.137 A 
ENDROOT
BRANCH   9  13
ATOM     13  C   UNL     1      -0.926   3.585 -23.230  0.00  0.00    -0.007 A 
ATOM     14  C   UNL     1      -1.515   2.858 -22.328  0.00  0.00    +0.007 A 
ATOM     15  C   UNL     1      -2.804   2.688 -22.369  0.00  0.00    +0.000 A 
ATOM     16  C   UNL     1      -3.502   3.245 -23.313  0.00  0.00    +0.000 A 
ATOM     17  C   UNL     1      -2.913   3.973 -24.215  0.00  0.00    +0.000 A 
ATOM     18  C   UNL     1      -1.625   4.143 -24.174  0.00  0.00    +0.007 A 
ENDBRANCH   9  13
BRANCH   4  19
ATOM     19  C   UNL     1       2.728   0.668 -22.903  0.00  0.00    +0.266 C 
ATOM     20  O   UNL     1       2.839  -0.035 -21.815  0.00  0.00    -0.295 OA
ENDBRANCH   4  19
BRANCH   3  21
ATOM     21  O   UNL     1       5.304   1.008 -22.819  0.00  0.00    -0.506 OA
ATOM     22  H   UNL     1       5.751   0.832 -22.014  0.00  0.00    +0.292 HD
ENDBRANCH   3  21
BRANCH  12  23
ATOM     23  O   UNL     1       4.726   5.464 -23.116  0.00  0.00    -0.506 OA
ATOM     24  H   UNL     1       4.573   6.003 -23.867  0.00  0.00    +0.292 HD
ENDBRANCH  12  23
TORSDOF 4
ENDMDL
MODEL 5
REMARK VINA RESULT:    -8.990      2.257      3.033
REMARK INTER + INTRA:         -11.369
REMARK INTER:                 -10.609
REMARK INTRA:                  -0.760
REMARK UNBOUND:                -0.803
REMARK  Name = ZINC000003581770
REMARK  5 active torsions:
REMARK  status: ('A' for Active; 'I' for Inactive)
REMARK    1  A    between atoms: C_1  and  C_2
REMARK    2  A    between atoms: C_3  and  O_4
REMARK    3  A    between atoms: C_5  and  C_6
REMARK    4  A    between atoms: C_10  and  O_11
REMARK    5  A    between atoms: C_15  and  C_16
REMARK                            x       y       z     vdW  Elec       q    Type
REMARK                         _______ _______ _______ _____ _____    ______ ____
ROOT
ATOM      1  C   UNL     1       6.549   2.890 -22.900  0.00  0.00    +0.051 C 
ATOM      2  C   UNL     1       5.258   3.053 -22.883  0.00  0.00    +0.034 A 
ATOM      3  C   UNL     1       4.752   4.240 -23.033  0.00  0.00    +0.137 A 
ATOM      4  C   UNL     1       3.462   4.404 -23.017  0.00  0.00    +0.098 A 
ATOM      5  C   UNL     1       2.680   3.380 -22.850  0.00  0.00    +0.149 A 
ATOM      6  C   UNL     1       3.187   2.191 -22.700  0.00  0.00    +0.102 A 
ATOM      7  C   UNL     1       2.404   1.168 -22.533  0.00  0.00    +0.174 C 
ATOM      8  C   UNL     1       1.114   1.331 -22.517  0.00  0.00    +0.129 C 
ATOM      9  C   UNL     1       0.607   2.519 -22.667  0.00  0.00    +0.211 C 
ATOM     10  O   UNL     1       2.911  -0.021 -22.383  0.00  0.00    -0.292 OA
ATOM     11  O   UNL     1       1.389   3.543 -22.833  0.00  0.00    -0.482 OA
ATOM     12  C   UNL     1       4.476   2.028 -22.717  0.00  0.00    +0.137 A 
ENDROOT
BRANCH   9  13
ATOM     13  C   UNL     1      -0.682   2.682 -22.650  0.00  0.00    -0.007 A 
ATOM     14  C   UNL     1      -1.356   2.423 -21.569  0.00  0.00    +0.007 A 
ATOM     15  C   UNL     1      -2.646   2.586 -21.552  0.00  0.00    +0.000 A 
ATOM     16  C   UNL     1      -3.262   3.008 -22.616  0.00  0.00    +0.000 A 
ATOM     17  C   UNL     1      -2.588   3.267 -23.697  0.00  0.00    +0.000 A 
ATOM     18  C   UNL     1      -1.298   3.104 -23.714  0.00  0.00    +0.007 A 
ENDBRANCH   9  13
BRANCH   4  19
ATOM     19  C   UNL     1       2.956   5.591 -23.167  0.00  0.00    +0.266 C 
ATOM     20  O   UNL     1       3.313   6.556 -22.372  0.00  0.00    -0.295 OA
ENDBRANCH   4  19
BRANCH   3  21
ATOM     21  O   UNL     1       5.535   5.265 -23.200  0.00  0.00    -0.506 OA
ATOM     22  H   UNL     1       6.308   5.184 -23.723  0.00  0.00    +0.292 HD
ENDBRANCH   3  21
BRANCH  12  23
ATOM     23  O   UNL     1       4.983   0.840 -22.566  0.00  0.00    -0.506 OA
ATOM     24  H   UNL     1       4.489   0.085 -22.819  0.00  0.00    +0.292 HD
ENDBRANCH  12  23
TORSDOF 4
ENDMDL
MODEL 6
REMARK VINA RESULT:    -8.492      2.091      5.956
REMARK INTER + INTRA:         -10.785
REMARK INTER:                 -10.405
REMARK INTRA:                  -0.379
REMARK UNBOUND:                -0.803
REMARK  Name = ZINC000003581770
REMARK  5 active torsions:
REMARK  status: ('A' for Active; 'I' for Inactive)
REMARK    1  A    between atoms: C_1  and  C_2
REMARK    2  A    between atoms: C_3  and  O_4
REMARK    3  A    between atoms: C_5  and  C_6
REMARK    4  A    between atoms: C_10  and  O_11
REMARK    5  A    between atoms: C_15  and  C_16
REMARK                            x       y       z     vdW  Elec       q    Type
REMARK                         _______ _______ _______ _____ _____    ______ ____
ROOT
ATOM      1  C   UNL     1      -5.751   3.751 -23.446  0.00  0.00    +0.051 C 
ATOM      2  C   UNL     1      -4.477   3.627 -23.680  0.00  0.00    +0.034 A 
ATOM      3  C   UNL     1      -4.023   3.759 -24.891  0.00  0.00    +0.137 A 
ATOM      4  C   UNL     1      -2.751   3.636 -25.125  0.00  0.00    +0.098 A 
ATOM      5  C   UNL     1      -1.932   3.380 -24.149  0.00  0.00    +0.149 A 
ATOM      6  C   UNL     1      -2.387   3.248 -22.937  0.00  0.00    +0.102 A 
ATOM      7  C   UNL     1      -1.568   2.992 -21.961  0.00  0.00    +0.174 C 
ATOM      8  C   UNL     1      -0.295   2.869 -22.194  0.00  0.00    +0.129 C 
ATOM      9  C   UNL     1       0.159   3.001 -23.405  0.00  0.00    +0.211 C 
ATOM     10  O   UNL     1      -2.022   2.860 -20.749  0.00  0.00    -0.292 OA
ATOM     11  O   UNL     1      -0.659   3.256 -24.382  0.00  0.00    -0.482 OA
ATOM     12  C   UNL     1      -3.659   3.371 -22.703  0.00  0.00    +0.137 A 
ENDROOT
BRANCH   9  13
ATOM     13  C   UNL     1       1.432   2.877 -23.639  0.00  0.00    -0.007 A 
ATOM     14  C   UNL     1       2.245   3.844 -23.334  0.00  0.00    +0.007 A 
ATOM     15  C   UNL     1       3.519   3.721 -23.568  0.00  0.00    +0.000 A 
ATOM     16  C   UNL     1       3.978   2.631 -24.107  0.00  0.00    +0.000 A 
ATOM     17  C   UNL     1       3.164   1.664 -24.413  0.00  0.00    +0.000 A 
ATOM     18  C   UNL     1       1.891   1.787 -24.179  0.00  0.00    +0.007 A 
ENDBRANCH   9  13
BRANCH   4  19
ATOM     19  C   UNL     1      -2.297   3.768 -26.336  0.00  0.00    +0.266 C 
ATOM     20  O   UNL     1      -3.016   3.379 -27.346  0.00  0.00    -0.295 OA
ENDBRANCH   4  19
BRANCH   3  21
ATOM     21  O   UNL     1      -4.843   4.015 -25.868  0.00  0.00    -0.506 OA
ATOM     22  H   UNL     1      -5.213   4.871 -25.957  0.00  0.00    +0.292 HD
ENDBRANCH   3  21
BRANCH  12  23
ATOM     23  O   UNL     1      -4.113   3.239 -21.492  0.00  0.00    -0.506 OA
ATOM     24  H   UNL     1      -3.523   3.270 -20.764  0.00  0.00    +0.292 HD
ENDBRANCH  12  23
TORSDOF 4
ENDMDL
MODEL 7
REMARK VINA RESULT:    -8.457      1.686      6.361
REMARK INTER + INTRA:         -10.743
REMARK INTER:                  -9.970
REMARK INTRA:                  -0.773
REMARK UNBOUND:                -0.803
REMARK  Name = ZINC000003581770
REMARK  5 active torsions:
REMARK  status: ('A' for Active; 'I' for Inactive)
REMARK    1  A    between atoms: C_1  and  C_2
REMARK    2  A    between atoms: C_3  and  O_4
REMARK    3  A    between atoms: C_5  and  C_6
REMARK    4  A    between atoms: C_10  and  O_11
REMARK    5  A    between atoms: C_15  and  C_16
REMARK                            x       y       z     vdW  Elec       q    Type
REMARK                         _______ _______ _______ _____ _____    ______ ____
ROOT
ATOM      1  C   UNL     1      -3.419   3.750 -25.251  0.00  0.00    +0.051 C 
ATOM      2  C   UNL     1      -2.395   3.379 -24.540  0.00  0.00    +0.034 A 
ATOM      3  C   UNL     1      -2.562   3.008 -23.305  0.00  0.00    +0.137 A 
ATOM      4  C   UNL     1      -1.540   2.637 -22.594  0.00  0.00    +0.098 A 
ATOM      5  C   UNL     1      -0.350   2.636 -23.117  0.00  0.00    +0.149 A 
ATOM      6  C   UNL     1      -0.183   3.006 -24.353  0.00  0.00    +0.102 A 
ATOM      7  C   UNL     1       1.006   3.005 -24.876  0.00  0.00    +0.174 C 
ATOM      8  C   UNL     1       2.030   2.634 -24.164  0.00  0.00    +0.129 C 
ATOM      9  C   UNL     1       1.863   2.263 -22.930  0.00  0.00    +0.211 C 
ATOM     10  O   UNL     1       1.173   3.376 -26.111  0.00  0.00    -0.292 OA
ATOM     11  O   UNL     1       0.673   2.264 -22.406  0.00  0.00    -0.482 OA
ATOM     12  C   UNL     1      -1.206   3.378 -25.064  0.00  0.00    +0.137 A 
ENDROOT
BRANCH   9  13
ATOM     13  C   UNL     1       2.885   1.892 -22.219  0.00  0.00    -0.007 A 
ATOM     14  C   UNL     1       2.848   0.770 -21.563  0.00  0.00    +0.007 A 
ATOM     15  C   UNL     1       3.871   0.398 -20.852  0.00  0.00    +0.000 A 
ATOM     16  C   UNL     1       4.931   1.148 -20.796  0.00  0.00    +0.000 A 
ATOM     17  C   UNL     1       4.968   2.270 -21.451  0.00  0.00    +0.000 A 
ATOM     18  C   UNL     1       3.945   2.642 -22.163  0.00  0.00    +0.007 A 
ENDBRANCH   9  13
BRANCH   4  19
ATOM     19  C   UNL     1      -1.707   2.266 -21.359  0.00  0.00    +0.266 C 
ATOM     20  O   UNL     1      -2.266   3.074 -20.507  0.00  0.00    -0.295 OA
ENDBRANCH   4  19
BRANCH   3  21
ATOM     21  O   UNL     1      -3.753   3.009 -22.781  0.00  0.00    -0.506 OA
ATOM     22  H   UNL     1      -4.383   2.370 -23.049  0.00  0.00    +0.292 HD
ENDBRANCH   3  21
BRANCH  12  23
ATOM     23  O   UNL     1      -1.039   3.748 -26.299  0.00  0.00    -0.506 OA
ATOM     24  H   UNL     1      -0.598   3.182 -26.902  0.00  0.00    +0.292 HD
ENDBRANCH  12  23
TORSDOF 4
ENDMDL
MODEL 8
REMARK VINA RESULT:    -8.015      1.914      5.685
REMARK INTER + INTRA:         -10.223
REMARK INTER:                  -9.975
REMARK INTRA:                  -0.248
REMARK UNBOUND:                -0.803
REMARK  Name = ZINC000003581770
REMARK  5 active torsions:
REMARK  status: ('A' for Active; 'I' for Inactive)
REMARK    1  A    between atoms: C_1  and  C_2
REMARK    2  A    between atoms: C_3  and  O_4
REMARK    3  A    between atoms: C_5  and  C_6
REMARK    4  A    between atoms: C_10  and  O_11
REMARK    5  A    between atoms: C_15  and  C_16
REMARK                            x       y       z     vdW  Elec       q    Type
REMARK                         _______ _______ _______ _____ _____    ______ ____
ROOT
ATOM      1  C   UNL     1      -5.423   4.144 -24.540  0.00  0.00    +0.051 C 
ATOM      2  C   UNL     1      -4.208   3.763 -24.275  0.00  0.00    +0.034 A 
ATOM      3  C   UNL     1      -3.310   3.760 -25.215  0.00  0.00    +0.137 A 
ATOM      4  C   UNL     1      -2.095   3.380 -24.951  0.00  0.00    +0.098 A 
ATOM      5  C   UNL     1      -1.778   3.002 -23.749  0.00  0.00    +0.149 A 
ATOM      6  C   UNL     1      -2.677   3.006 -22.809  0.00  0.00    +0.102 A 
ATOM      7  C   UNL     1      -2.361   2.629 -21.607  0.00  0.00    +0.174 C 
ATOM      8  C   UNL     1      -1.146   2.248 -21.342  0.00  0.00    +0.129 C 
ATOM      9  C   UNL     1      -0.247   2.245 -22.282  0.00  0.00    +0.211 C 
ATOM     10  O   UNL     1      -3.260   2.632 -20.666  0.00  0.00    -0.292 OA
ATOM     11  O   UNL     1      -0.563   2.622 -23.485  0.00  0.00    -0.482 OA
ATOM     12  C   UNL     1      -3.892   3.386 -23.072  0.00  0.00    +0.137 A 
ENDROOT
BRANCH   9  13
ATOM     13  C   UNL     1       0.967   1.864 -22.018  0.00  0.00    -0.007 A 
ATOM     14  C   UNL     1       1.843   1.777 -22.975  0.00  0.00    +0.007 A 
ATOM     15  C   UNL     1       3.058   1.396 -22.712  0.00  0.00    +0.000 A 
ATOM     16  C   UNL     1       3.397   1.103 -21.492  0.00  0.00    +0.000 A 
ATOM     17  C   UNL     1       2.522   1.191 -20.535  0.00  0.00    +0.000 A 
ATOM     18  C   UNL     1       1.306   1.572 -20.798  0.00  0.00    +0.007 A 
ENDBRANCH   9  13
BRANCH   4  19
ATOM     19  C   UNL     1      -1.197   3.376 -25.891  0.00  0.00    +0.266 C 
ATOM     20  O   UNL     1      -0.099   4.058 -25.745  0.00  0.00    -0.295 OA
ENDBRANCH   4  19
BRANCH   3  21
ATOM     21  O   UNL     1      -3.626   4.137 -26.419  0.00  0.00    -0.506 OA
ATOM     22  H   UNL     1      -3.529   5.035 -26.669  0.00  0.00    +0.292 HD
ENDBRANCH   3  21
BRANCH  12  23
ATOM     23  O   UNL     1      -4.790   3.389 -22.133  0.00  0.00    -0.506 OA
ATOM     24  H   UNL     1      -5.641   3.032 -22.297  0.00  0.00    +0.292 HD
ENDBRANCH  12  23
TORSDOF 4
ENDMDL
MODEL 9
REMARK VINA RESULT:    -7.701      2.337      6.377
REMARK INTER + INTRA:          -9.854
REMARK INTER:                  -9.051
REMARK INTRA:                  -0.803
REMARK UNBOUND:                -0.803
REMARK  Name = ZINC000003581770
REMARK  5 active torsions:
REMARK  status: ('A' for Active; 'I' for Inactive)
REMARK    1  A    between atoms: C_1  and  C_2
REMARK    2  A    between atoms: C_3  and  O_4
REMARK    3  A    between atoms: C_5  and  C_6
REMARK    4  A    between atoms: C_10  and  O_11
REMARK    5  A    between atoms: C_15  and  C_16
REMARK                            x       y       z     vdW  Elec       q    Type
REMARK                         _______ _______ _______ _____ _____    ______ ____
ROOT
ATOM      1  C   UNL     1      -1.645   2.000 -22.259  0.00  0.00    +0.051 C 
ATOM      2  C   UNL     1      -0.433   2.397 -22.515  0.00  0.00    +0.034 A 
ATOM      3  C   UNL     1      -0.219   3.263 -23.461  0.00  0.00    +0.137 A 
ATOM      4  C   UNL     1       0.991   3.660 -23.717  0.00  0.00    +0.098 A 
ATOM      5  C   UNL     1       1.988   3.192 -23.027  0.00  0.00    +0.149 A 
ATOM      6  C   UNL     1       1.774   2.326 -22.080  0.00  0.00    +0.102 A 
ATOM      7  C   UNL     1       2.771   1.858 -21.391  0.00  0.00    +0.174 C 
ATOM      8  C   UNL     1       3.983   2.255 -21.647  0.00  0.00    +0.129 C 
ATOM      9  C   UNL     1       4.197   3.121 -22.593  0.00  0.00    +0.211 C 
ATOM     10  O   UNL     1       2.557   0.992 -20.444  0.00  0.00    -0.292 OA
ATOM     11  O   UNL     1       3.200   3.589 -23.283  0.00  0.00    -0.482 OA
ATOM     12  C   UNL     1       0.564   1.929 -21.824  0.00  0.00    +0.137 A 
ENDROOT
BRANCH   9  13
ATOM     13  C   UNL     1       5.408   3.518 -22.849  0.00  0.00    -0.007 A 
ATOM     14  C   UNL     1       6.372   2.650 -22.934  0.00  0.00    +0.007 A 
ATOM     15  C   UNL     1       7.583   3.047 -23.190  0.00  0.00    +0.000 A 
ATOM     16  C   UNL     1       7.830   4.312 -23.361  0.00  0.00    +0.000 A 
ATOM     17  C   UNL     1       6.866   5.180 -23.276  0.00  0.00    +0.000 A 
ATOM     18  C   UNL     1       5.655   4.783 -23.019  0.00  0.00    +0.007 A 
ENDBRANCH   9  13
BRANCH   4  19
ATOM     19  C   UNL     1       1.205   4.525 -24.663  0.00  0.00    +0.266 C 
ATOM     20  O   UNL     1       1.207   4.144 -25.906  0.00  0.00    -0.295 OA
ENDBRANCH   4  19
BRANCH   3  21
ATOM     21  O   UNL     1      -1.217   3.731 -24.151  0.00  0.00    -0.506 OA
ATOM     22  H   UNL     1      -1.407   3.379 -24.999  0.00  0.00    +0.292 HD
ENDBRANCH   3  21
BRANCH  12  23
ATOM     23  O   UNL     1       0.350   1.063 -20.878  0.00  0.00    -0.506 OA
ATOM     24  H   UNL     1       0.326   1.343 -19.984  0.00  0.00    +0.292 HD
ENDBRANCH  12  23
TORSDOF 4
ENDMDL
