MODEL 1
REMARK VINA RESULT:    -9.792      0.000      0.000
REMARK INTER + INTRA:         -11.580
REMARK INTER:                 -11.553
REMARK INTRA:                  -0.027
REMARK UNBOUND:                 0.216
REMARK  Name = ZINC000003881680
REMARK  4 active torsions:
REMARK  status: ('A' for Active; 'I' for Inactive)
REMARK    1  A    between atoms: C_2  and  C_3
REMARK    2  A    between atoms: C_10  and  C_11
REMARK    3  A    between atoms: C_11  and  O_12
REMARK    4  A    between atoms: C_11  and  C_13
REMARK                            x       y       z     vdW  Elec       q    Type
REMARK                         _______ _______ _______ _____ _____    ______ ____
ROOT
ATOM      1  C   UNL     1       0.385   3.135 -24.349  0.00  0.00    +0.193 C 
ENDROOT
BRANCH   1   2
ATOM      2  C   UNL     1       1.472   3.666 -23.803  0.00  0.00    -0.003 A 
ATOM      3  C   UNL     1       1.559   4.979 -23.641  0.00  0.00    +0.026 A 
ATOM      4  C   UNL     1       2.646   5.510 -23.094  0.00  0.00    +0.112 A 
ATOM      5  N   UNL     1       3.645   4.726 -22.711  0.00  0.00    -0.255 NA
ATOM      6  C   UNL     1       3.558   3.412 -22.873  0.00  0.00    +0.071 A 
ATOM      7  C   UNL     1       4.557   2.629 -22.490  0.00  0.00    +0.028 A 
ATOM      8  C   UNL     1       4.470   1.315 -22.652  0.00  0.00    +0.002 A 
ATOM      9  C   UNL     1       3.384   0.785 -23.198  0.00  0.00    +0.001 A 
ATOM     10  C   UNL     1       2.384   1.568 -23.582  0.00  0.00    +0.010 A 
ATOM     11  C   UNL     1       2.471   2.882 -23.419  0.00  0.00    +0.006 A 
ENDBRANCH   1   2
BRANCH   1  18
ATOM     12  C   UNL     1      -3.022   2.957 -22.256  0.00  0.00    +0.060 C 
ATOM     13  C   UNL     1      -1.936   2.288 -21.833  0.00  0.00    +0.139 C 
ATOM     14  N   UNL     1      -0.800   2.354 -22.541  0.00  0.00    +0.240 N 
ATOM     15  H   UNL     1       0.124   1.940 -22.415  0.00  0.00    +0.204 HD
ATOM     16  C   UNL     1      -1.834   2.672 -22.465  0.00  0.00    +0.132 C 
ATOM     17  C   UNL     1      -2.006   3.342 -23.379  0.00  0.00    +0.055 C 
ATOM     18  C   UNL     1      -0.743   3.074 -23.653  0.00  0.00    +0.098 C 
ATOM     19  C   UNL     1      -1.828   3.743 -24.076  0.00  0.00    +0.062 C 
ATOM     20  C   UNL     1      -2.956   3.683 -23.381  0.00  0.00    +0.011 C 
BRANCH  12  22
ATOM     21  C   UNL     1      -5.304   3.287 -22.114  0.00  0.00    +0.004 C 
ATOM     22  C   UNL     1      -4.164   2.899 -21.557  0.00  0.00    -0.026 C 
ENDBRANCH  12  22
ENDBRANCH   1  18
BRANCH   1  23
ATOM     23  O   UNL     1       0.427   2.664 -25.588  0.00  0.00    -0.382 OA
ATOM     24  H   UNL     1      -0.125   3.218 -26.162  0.00  0.00    +0.211 HD
ENDBRANCH   1  23
TORSDOF 4
ENDMDL
MODEL 2
REMARK VINA RESULT:    -9.609      1.603      5.971
REMARK INTER + INTRA:         -11.359
REMARK INTER:                 -11.463
REMARK INTRA:                   0.103
REMARK UNBOUND:                 0.216
REMARK  Name = ZINC000003881680
REMARK  4 active torsions:
REMARK  status: ('A' for Active; 'I' for Inactive)
REMARK    1  A    between atoms: C_2  and  C_3
REMARK    2  A    between atoms: C_10  and  C_11
REMARK    3  A    between atoms: C_11  and  O_12
REMARK    4  A    between atoms: C_11  and  C_13
REMARK                            x       y       z     vdW  Elec       q    Type
REMARK                         _______ _______ _______ _____ _____    ______ ____
ROOT
ATOM      1  C   UNL     1      -0.122   4.339 -23.281  0.00  0.00    +0.193 C 
ENDROOT
BRANCH   1   2
ATOM      2  C   UNL     1      -1.298   3.949 -23.754  0.00  0.00    -0.003 A 
ATOM      3  C   UNL     1      -1.446   3.706 -25.049  0.00  0.00    +0.026 A 
ATOM      4  C   UNL     1      -2.623   3.316 -25.521  0.00  0.00    +0.112 A 
ATOM      5  N   UNL     1      -3.652   3.169 -24.696  0.00  0.00    -0.255 NA
ATOM      6  C   UNL     1      -3.505   3.412 -23.401  0.00  0.00    +0.071 A 
ATOM      7  C   UNL     1      -4.534   3.265 -22.577  0.00  0.00    +0.028 A 
ATOM      8  C   UNL     1      -4.386   3.509 -21.281  0.00  0.00    +0.002 A 
ATOM      9  C   UNL     1      -3.210   3.898 -20.809  0.00  0.00    +0.001 A 
ATOM     10  C   UNL     1      -2.180   4.045 -21.634  0.00  0.00    +0.010 A 
ATOM     11  C   UNL     1      -2.328   3.802 -22.929  0.00  0.00    +0.006 A 
ENDBRANCH   1   2
BRANCH   1  18
ATOM     12  C   UNL     1       2.813   1.667 -22.766  0.00  0.00    +0.060 C 
ATOM     13  C   UNL     1       1.604   1.451 -22.225  0.00  0.00    +0.139 C 
ATOM     14  N   UNL     1       0.627   2.352 -22.403  0.00  0.00    +0.240 N 
ATOM     15  H   UNL     1      -0.344   2.396 -22.093  0.00  0.00    +0.204 HD
ATOM     16  C   UNL     1       1.659   2.089 -22.609  0.00  0.00    +0.132 C 
ATOM     17  C   UNL     1       2.065   2.953 -23.243  0.00  0.00    +0.055 C 
ATOM     18  C   UNL     1       0.850   3.452 -23.109  0.00  0.00    +0.098 C 
ATOM     19  C   UNL     1       2.060   3.669 -23.651  0.00  0.00    +0.062 C 
ATOM     20  C   UNL     1       3.031   2.782 -23.479  0.00  0.00    +0.011 C 
BRANCH  12  22
ATOM     21  C   UNL     1       5.006   1.180 -22.226  0.00  0.00    +0.004 C 
ATOM     22  C   UNL     1       3.798   0.774 -22.596  0.00  0.00    -0.026 C 
ENDBRANCH  12  22
ENDBRANCH   1  18
BRANCH   1  23
ATOM     23  O   UNL     1       0.083   5.615 -22.980  0.00  0.00    -0.382 OA
ATOM     24  H   UNL     1       0.777   5.974 -23.555  0.00  0.00    +0.211 HD
ENDBRANCH   1  23
TORSDOF 4
ENDMDL
MODEL 3
REMARK VINA RESULT:    -9.540      1.529      6.263
REMARK INTER + INTRA:         -11.276
REMARK INTER:                 -11.737
REMARK INTRA:                   0.461
REMARK UNBOUND:                 0.216
REMARK  Name = ZINC000003881680
REMARK  4 active torsions:
REMARK  status: ('A' for Active; 'I' for Inactive)
REMARK    1  A    between atoms: C_2  and  C_3
REMARK    2  A    between atoms: C_10  and  C_11
REMARK    3  A    between atoms: C_11  and  O_12
REMARK    4  A    between atoms: C_11  and  C_13
REMARK                            x       y       z     vdW  Elec       q    Type
REMARK                         _______ _______ _______ _____ _____    ______ ____
ROOT
ATOM      1  C   UNL     1      -0.466   3.357 -24.413  0.00  0.00    +0.193 C 
ENDROOT
BRANCH   1   2
ATOM      2  C   UNL     1      -1.419   3.129 -23.517  0.00  0.00    -0.003 A 
ATOM      3  C   UNL     1      -1.125   2.519 -22.377  0.00  0.00    +0.026 A 
ATOM      4  C   UNL     1      -2.078   2.292 -21.482  0.00  0.00    +0.112 A 
ATOM      5  N   UNL     1      -3.324   2.675 -21.728  0.00  0.00    -0.255 NA
ATOM      6  C   UNL     1      -3.618   3.286 -22.868  0.00  0.00    +0.071 A 
ATOM      7  C   UNL     1      -4.863   3.669 -23.114  0.00  0.00    +0.028 A 
ATOM      8  C   UNL     1      -5.157   4.280 -24.255  0.00  0.00    +0.002 A 
ATOM      9  C   UNL     1      -4.205   4.507 -25.149  0.00  0.00    +0.001 A 
ATOM     10  C   UNL     1      -2.958   4.123 -24.904  0.00  0.00    +0.010 A 
ATOM     11  C   UNL     1      -2.665   3.513 -23.763  0.00  0.00    +0.006 A 
ENDBRANCH   1   2
BRANCH   1  18
ATOM     12  C   UNL     1       3.072   4.816 -23.242  0.00  0.00    +0.060 C 
ATOM     13  C   UNL     1       1.987   5.607 -23.249  0.00  0.00    +0.139 C 
ATOM     14  N   UNL     1       0.806   5.109 -23.643  0.00  0.00    +0.240 N 
ATOM     15  H   UNL     1      -0.127   5.513 -23.727  0.00  0.00    +0.204 HD
ATOM     16  C   UNL     1       1.858   4.907 -23.475  0.00  0.00    +0.132 C 
ATOM     17  C   UNL     1       1.998   3.805 -23.759  0.00  0.00    +0.055 C 
ATOM     18  C   UNL     1       0.706   3.843 -24.024  0.00  0.00    +0.098 C 
ATOM     19  C   UNL     1       1.791   3.052 -24.018  0.00  0.00    +0.062 C 
ATOM     20  C   UNL     1       2.962   3.537 -23.629  0.00  0.00    +0.011 C 
BRANCH  12  22
ATOM     21  C   UNL     1       5.361   4.586 -23.030  0.00  0.00    +0.004 C 
ATOM     22  C   UNL     1       4.258   5.302 -22.850  0.00  0.00    -0.026 C 
ENDBRANCH  12  22
ENDBRANCH   1  18
BRANCH   1  23
ATOM     23  O   UNL     1      -0.686   3.099 -25.695  0.00  0.00    -0.382 OA
ATOM     24  H   UNL     1      -0.260   3.780 -26.238  0.00  0.00    +0.211 HD
ENDBRANCH   1  23
TORSDOF 4
ENDMDL
MODEL 4
REMARK VINA RESULT:    -9.422      1.298      2.346
REMARK INTER + INTRA:         -11.134
REMARK INTER:                 -11.215
REMARK INTRA:                   0.081
REMARK UNBOUND:                 0.216
REMARK  Name = ZINC000003881680
REMARK  4 active torsions:
REMARK  status: ('A' for Active; 'I' for Inactive)
REMARK    1  A    between atoms: C_2  and  C_3
REMARK    2  A    between atoms: C_10  and  C_11
REMARK    3  A    between atoms: C_11  and  O_12
REMARK    4  A    between atoms: C_11  and  C_13
REMARK                            x       y       z     vdW  Elec       q    Type
REMARK                         _______ _______ _______ _____ _____    ______ ____
ROOT
ATOM      1  C   UNL     1       0.588   3.276 -24.626  0.00  0.00    +0.193 C 
ENDROOT
BRANCH   1   2
ATOM      2  C   UNL     1       1.845   2.932 -24.375  0.00  0.00    -0.003 A 
ATOM      3  C   UNL     1       2.276   1.717 -24.687  0.00  0.00    +0.026 A 
ATOM      4  C   UNL     1       3.533   1.374 -24.436  0.00  0.00    +0.112 A 
ATOM      5  N   UNL     1       4.359   2.247 -23.874  0.00  0.00    -0.255 NA
ATOM      6  C   UNL     1       3.929   3.462 -23.563  0.00  0.00    +0.071 A 
ATOM      7  C   UNL     1       4.754   4.335 -23.001  0.00  0.00    +0.028 A 
ATOM      8  C   UNL     1       4.324   5.551 -22.690  0.00  0.00    +0.002 A 
ATOM      9  C   UNL     1       3.068   5.893 -22.940  0.00  0.00    +0.001 A 
ATOM     10  C   UNL     1       2.241   5.020 -23.502  0.00  0.00    +0.010 A 
ATOM     11  C   UNL     1       2.671   3.805 -23.813  0.00  0.00    +0.006 A 
ENDBRANCH   1   2
BRANCH   1  18
ATOM     12  C   UNL     1      -2.173   3.000 -21.742  0.00  0.00    +0.060 C 
ATOM     13  C   UNL     1      -1.365   1.959 -22.001  0.00  0.00    +0.139 C 
ATOM     14  N   UNL     1      -0.443   2.062 -22.969  0.00  0.00    +0.240 N 
ATOM     15  H   UNL     1       0.261   1.418 -23.331  0.00  0.00    +0.204 HD
ATOM     16  C   UNL     1      -1.244   2.557 -22.432  0.00  0.00    +0.132 C 
ATOM     17  C   UNL     1      -1.317   3.599 -22.903  0.00  0.00    +0.055 C 
ATOM     18  C   UNL     1      -0.326   3.182 -23.669  0.00  0.00    +0.098 C 
ATOM     19  C   UNL     1      -1.135   4.223 -23.410  0.00  0.00    +0.062 C 
ATOM     20  C   UNL     1      -2.049   4.130 -22.454  0.00  0.00    +0.011 C 
BRANCH  12  22
ATOM     21  C   UNL     1      -3.210   3.874 -19.872  0.00  0.00    +0.004 C 
ATOM     22  C   UNL     1      -3.098   2.910 -20.777  0.00  0.00    -0.026 C 
ENDBRANCH  12  22
ENDBRANCH   1  18
BRANCH   1  23
ATOM     23  O   UNL     1       0.247   3.713 -25.830  0.00  0.00    -0.382 OA
ATOM     24  H   UNL     1       0.773   3.252 -26.502  0.00  0.00    +0.211 HD
ENDBRANCH   1  23
TORSDOF 4
ENDMDL
MODEL 5
REMARK VINA RESULT:    -9.346      1.709      2.767
REMARK INTER + INTRA:         -11.043
REMARK INTER:                 -11.309
REMARK INTRA:                   0.266
REMARK UNBOUND:                 0.216
REMARK  Name = ZINC000003881680
REMARK  4 active torsions:
REMARK  status: ('A' for Active; 'I' for Inactive)
REMARK    1  A    between atoms: C_2  and  C_3
REMARK    2  A    between atoms: C_10  and  C_11
REMARK    3  A    between atoms: C_11  and  O_12
REMARK    4  A    between atoms: C_11  and  C_13
REMARK                            x       y       z     vdW  Elec       q    Type
REMARK                         _______ _______ _______ _____ _____    ______ ____
ROOT
ATOM      1  C   UNL     1       1.499   2.035 -23.474  0.00  0.00    +0.193 C 
ENDROOT
BRANCH   1   2
ATOM      2  C   UNL     1       2.567   1.772 -22.731  0.00  0.00    -0.003 A 
ATOM      3  C   UNL     1       2.640   0.635 -22.053  0.00  0.00    +0.026 A 
ATOM      4  C   UNL     1       3.709   0.373 -21.311  0.00  0.00    +0.112 A 
ATOM      5  N   UNL     1       4.704   1.248 -21.248  0.00  0.00    -0.255 NA
ATOM      6  C   UNL     1       4.631   2.386 -21.927  0.00  0.00    +0.071 A 
ATOM      7  C   UNL     1       5.625   3.261 -21.864  0.00  0.00    +0.028 A 
ATOM      8  C   UNL     1       5.552   4.399 -22.543  0.00  0.00    +0.002 A 
ATOM      9  C   UNL     1       4.485   4.661 -23.284  0.00  0.00    +0.001 A 
ATOM     10  C   UNL     1       3.489   3.785 -23.347  0.00  0.00    +0.010 A 
ATOM     11  C   UNL     1       3.562   2.648 -22.669  0.00  0.00    +0.006 A 
ENDBRANCH   1   2
BRANCH   1  18
ATOM     12  C   UNL     1      -1.845   3.393 -21.745  0.00  0.00    +0.060 C 
ATOM     13  C   UNL     1      -1.108   4.209 -22.517  0.00  0.00    +0.139 C 
ATOM     14  N   UNL     1       0.011   3.744 -23.091  0.00  0.00    +0.240 N 
ATOM     15  H   UNL     1       0.709   4.171 -23.701  0.00  0.00    +0.204 HD
ATOM     16  C   UNL     1      -0.836   3.516 -22.453  0.00  0.00    +0.132 C 
ATOM     17  C   UNL     1      -0.698   2.417 -22.159  0.00  0.00    +0.055 C 
ATOM     18  C   UNL     1       0.391   2.488 -22.901  0.00  0.00    +0.098 C 
ATOM     19  C   UNL     1      -0.347   1.673 -22.130  0.00  0.00    +0.062 C 
ATOM     20  C   UNL     1      -1.455   2.124 -21.558  0.00  0.00    +0.011 C 
BRANCH  12  22
ATOM     21  C   UNL     1      -3.149   3.687 -19.861  0.00  0.00    +0.004 C 
ATOM     22  C   UNL     1      -2.966   3.846 -21.165  0.00  0.00    -0.026 C 
ENDBRANCH  12  22
ENDBRANCH   1  18
BRANCH   1  23
ATOM     23  O   UNL     1       1.539   1.847 -24.786  0.00  0.00    -0.382 OA
ATOM     24  H   UNL     1       0.748   2.233 -25.192  0.00  0.00    +0.211 HD
ENDBRANCH   1  23
TORSDOF 4
ENDMDL
MODEL 6
REMARK VINA RESULT:    -9.306      1.837      2.365
REMARK INTER + INTRA:         -10.995
REMARK INTER:                 -10.984
REMARK INTRA:                  -0.011
REMARK UNBOUND:                 0.216
REMARK  Name = ZINC000003881680
REMARK  4 active torsions:
REMARK  status: ('A' for Active; 'I' for Inactive)
REMARK    1  A    between atoms: C_2  and  C_3
REMARK    2  A    between atoms: C_10  and  C_11
REMARK    3  A    between atoms: C_11  and  O_12
REMARK    4  A    between atoms: C_11  and  C_13
REMARK                            x       y       z     vdW  Elec       q    Type
REMARK                         _______ _______ _______ _____ _____    ______ ____
ROOT
ATOM      1  C   UNL     1       0.310   4.161 -23.390  0.00  0.00    +0.193 C 
ENDROOT
BRANCH   1   2
ATOM      2  C   UNL     1       1.053   3.214 -23.948  0.00  0.00    -0.003 A 
ATOM      3  C   UNL     1       1.136   3.127 -25.268  0.00  0.00    +0.026 A 
ATOM      4  C   UNL     1       1.880   2.180 -25.826  0.00  0.00    +0.112 A 
ATOM      5  N   UNL     1       2.541   1.321 -25.061  0.00  0.00    -0.255 NA
ATOM      6  C   UNL     1       2.459   1.408 -23.740  0.00  0.00    +0.071 A 
ATOM      7  C   UNL     1       3.120   0.549 -22.976  0.00  0.00    +0.028 A 
ATOM      8  C   UNL     1       3.038   0.637 -21.654  0.00  0.00    +0.002 A 
ATOM      9  C   UNL     1       2.294   1.583 -21.097  0.00  0.00    +0.001 A 
ATOM     10  C   UNL     1       1.633   2.443 -21.862  0.00  0.00    +0.010 A 
ATOM     11  C   UNL     1       1.715   2.355 -23.183  0.00  0.00    +0.006 A 
ENDBRANCH   1   2
BRANCH   1  18
ATOM     12  C   UNL     1      -3.661   3.712 -23.169  0.00  0.00    +0.060 C 
ATOM     13  C   UNL     1      -3.094   4.128 -24.312  0.00  0.00    +0.139 C 
ATOM     14  N   UNL     1      -1.762   4.276 -24.377  0.00  0.00    +0.240 N 
ATOM     15  H   UNL     1      -1.130   4.572 -25.120  0.00  0.00    +0.204 HD
ATOM     16  C   UNL     1      -2.610   3.999 -23.759  0.00  0.00    +0.132 C 
ATOM     17  C   UNL     1      -2.158   3.720 -22.743  0.00  0.00    +0.055 C 
ATOM     18  C   UNL     1      -1.007   4.013 -23.319  0.00  0.00    +0.098 C 
ATOM     19  C   UNL     1      -1.575   3.596 -22.175  0.00  0.00    +0.062 C 
ATOM     20  C   UNL     1      -2.890   3.448 -22.104  0.00  0.00    +0.011 C 
BRANCH  12  22
ATOM     21  C   UNL     1      -5.550   3.169 -21.955  0.00  0.00    +0.004 C 
ATOM     22  C   UNL     1      -4.991   3.560 -23.092  0.00  0.00    -0.026 C 
ENDBRANCH  12  22
ENDBRANCH   1  18
BRANCH   1  23
ATOM     23  O   UNL     1       0.882   5.254 -22.903  0.00  0.00    -0.382 OA
ATOM     24  H   UNL     1       1.628   5.004 -22.338  0.00  0.00    +0.211 HD
ENDBRANCH   1  23
TORSDOF 4
ENDMDL
MODEL 7
REMARK VINA RESULT:    -9.303      1.611      6.192
REMARK INTER + INTRA:         -10.991
REMARK INTER:                 -11.532
REMARK INTRA:                   0.541
REMARK UNBOUND:                 0.216
REMARK  Name = ZINC000003881680
REMARK  4 active torsions:
REMARK  status: ('A' for Active; 'I' for Inactive)
REMARK    1  A    between atoms: C_2  and  C_3
REMARK    2  A    between atoms: C_10  and  C_11
REMARK    3  A    between atoms: C_11  and  O_12
REMARK    4  A    between atoms: C_11  and  C_13
REMARK                            x       y       z     vdW  Elec       q    Type
REMARK                         _______ _______ _______ _____ _____    ______ ____
ROOT
ATOM      1  C   UNL     1      -0.685   2.297 -23.247  0.00  0.00    +0.193 C 
ENDROOT
BRANCH   1   2
ATOM      2  C   UNL     1      -1.738   2.806 -23.875  0.00  0.00    -0.003 A 
ATOM      3  C   UNL     1      -1.650   3.139 -25.156  0.00  0.00    +0.026 A 
ATOM      4  C   UNL     1      -2.703   3.648 -25.783  0.00  0.00    +0.112 A 
ATOM      5  N   UNL     1      -3.843   3.824 -25.127  0.00  0.00    -0.255 NA
ATOM      6  C   UNL     1      -3.931   3.492 -23.846  0.00  0.00    +0.071 A 
ATOM      7  C   UNL     1      -5.071   3.668 -23.192  0.00  0.00    +0.028 A 
ATOM      8  C   UNL     1      -5.158   3.336 -21.910  0.00  0.00    +0.002 A 
ATOM      9  C   UNL     1      -4.106   2.828 -21.283  0.00  0.00    +0.001 A 
ATOM     10  C   UNL     1      -2.965   2.651 -21.938  0.00  0.00    +0.010 A 
ATOM     11  C   UNL     1      -2.878   2.983 -23.219  0.00  0.00    +0.006 A 
ENDBRANCH   1   2
BRANCH   1  18
ATOM     12  C   UNL     1       2.791   4.281 -23.234  0.00  0.00    +0.060 C 
ATOM     13  C   UNL     1       1.630   4.957 -23.230  0.00  0.00    +0.139 C 
ATOM     14  N   UNL     1       0.471   4.283 -23.234  0.00  0.00    +0.240 N 
ATOM     15  H   UNL     1      -0.505   4.578 -23.233  0.00  0.00    +0.204 HD
ATOM     16  C   UNL     1       1.554   4.214 -23.235  0.00  0.00    +0.132 C 
ATOM     17  C   UNL     1       1.779   3.091 -23.242  0.00  0.00    +0.055 C 
ATOM     18  C   UNL     1       0.466   2.957 -23.243  0.00  0.00    +0.098 C 
ATOM     19  C   UNL     1       1.627   2.281 -23.247  0.00  0.00    +0.062 C 
ATOM     20  C   UNL     1       2.777   2.940 -23.242  0.00  0.00    +0.011 C 
BRANCH  12  22
ATOM     21  C   UNL     1       5.073   4.320 -22.875  0.00  0.00    +0.004 C 
ATOM     22  C   UNL     1       3.956   4.943 -23.230  0.00  0.00    -0.026 C 
ENDBRANCH  12  22
ENDBRANCH   1  18
BRANCH   1  23
ATOM     23  O   UNL     1      -0.784   1.130 -22.625  0.00  0.00    -0.382 OA
ATOM     24  H   UNL     1      -0.824   0.417 -23.281  0.00  0.00    +0.211 HD
ENDBRANCH   1  23
TORSDOF 4
ENDMDL
MODEL 8
REMARK VINA RESULT:    -9.084      1.526      6.131
REMARK INTER + INTRA:         -10.727
REMARK INTER:                 -10.809
REMARK INTRA:                   0.082
REMARK UNBOUND:                 0.216
REMARK  Name = ZINC000003881680
REMARK  4 active torsions:
REMARK  status: ('A' for Active; 'I' for Inactive)
REMARK    1  A    between atoms: C_2  and  C_3
REMARK    2  A    between atoms: C_10  and  C_11
REMARK    3  A    between atoms: C_11  and  O_12
REMARK    4  A    between atoms: C_11  and  C_13
REMARK                            x       y       z     vdW  Elec       q    Type
REMARK                         _______ _______ _______ _____ _____    ______ ____
ROOT
ATOM      1  C   UNL     1       1.411   2.497 -24.182  0.00  0.00    +0.193 C 
ENDROOT
BRANCH   1   2
ATOM      2  C   UNL     1       0.464   2.298 -23.274  0.00  0.00    -0.003 A 
ATOM      3  C   UNL     1       0.718   1.564 -22.200  0.00  0.00    +0.026 A 
ATOM      4  C   UNL     1      -0.229   1.365 -21.292  0.00  0.00    +0.112 A 
ATOM      5  N   UNL     1      -1.431   1.902 -21.460  0.00  0.00    -0.255 NA
ATOM      6  C   UNL     1      -1.685   2.636 -22.534  0.00  0.00    +0.071 A 
ATOM      7  C   UNL     1      -2.887   3.173 -22.702  0.00  0.00    +0.028 A 
ATOM      8  C   UNL     1      -3.142   3.908 -23.777  0.00  0.00    +0.002 A 
ATOM      9  C   UNL     1      -2.195   4.106 -24.684  0.00  0.00    +0.001 A 
ATOM     10  C   UNL     1      -0.993   3.570 -24.516  0.00  0.00    +0.010 A 
ATOM     11  C   UNL     1      -0.738   2.835 -23.442  0.00  0.00    +0.006 A 
ENDBRANCH   1   2
BRANCH   1  18
ATOM     12  C   UNL     1       4.847   4.257 -23.128  0.00  0.00    +0.060 C 
ATOM     13  C   UNL     1       4.835   2.961 -23.479  0.00  0.00    +0.139 C 
ATOM     14  N   UNL     1       3.679   2.380 -23.831  0.00  0.00    +0.240 N 
ATOM     15  H   UNL     1       3.436   1.435 -24.126  0.00  0.00    +0.204 HD
ATOM     16  C   UNL     1       4.166   3.292 -23.503  0.00  0.00    +0.132 C 
ATOM     17  C   UNL     1       3.327   4.070 -23.435  0.00  0.00    +0.055 C 
ATOM     18  C   UNL     1       2.551   3.079 -23.833  0.00  0.00    +0.098 C 
ATOM     19  C   UNL     1       2.564   4.375 -23.482  0.00  0.00    +0.062 C 
ATOM     20  C   UNL     1       3.703   4.956 -23.133  0.00  0.00    +0.011 C 
BRANCH  12  22
ATOM     21  C   UNL     1       5.980   6.054 -22.220  0.00  0.00    +0.004 C 
ATOM     22  C   UNL     1       5.997   4.849 -22.775  0.00  0.00    -0.026 C 
ENDBRANCH  12  22
ENDBRANCH   1  18
BRANCH   1  23
ATOM     23  O   UNL     1       1.217   2.116 -25.438  0.00  0.00    -0.382 OA
ATOM     24  H   UNL     1       0.808   1.237 -25.448  0.00  0.00    +0.211 HD
ENDBRANCH   1  23
TORSDOF 4
ENDMDL
MODEL 9
REMARK VINA RESULT:    -8.652      1.650      5.875
REMARK INTER + INTRA:         -10.206
REMARK INTER:                 -10.422
REMARK INTRA:                   0.216
REMARK UNBOUND:                 0.216
REMARK  Name = ZINC000003881680
REMARK  4 active torsions:
REMARK  status: ('A' for Active; 'I' for Inactive)
REMARK    1  A    between atoms: C_2  and  C_3
REMARK    2  A    between atoms: C_10  and  C_11
REMARK    3  A    between atoms: C_11  and  O_12
REMARK    4  A    between atoms: C_11  and  C_13
REMARK                            x       y       z     vdW  Elec       q    Type
REMARK                         _______ _______ _______ _____ _____    ______ ____
ROOT
ATOM      1  C   UNL     1       1.829   2.461 -24.763  0.00  0.00    +0.193 C 
ENDROOT
BRANCH   1   2
ATOM      2  C   UNL     1       0.585   2.832 -24.487  0.00  0.00    -0.003 A 
ATOM      3  C   UNL     1      -0.105   3.548 -25.366  0.00  0.00    +0.026 A 
ATOM      4  C   UNL     1      -1.349   3.918 -25.089  0.00  0.00    +0.112 A 
ATOM      5  N   UNL     1      -1.902   3.572 -23.934  0.00  0.00    -0.255 NA
ATOM      6  C   UNL     1      -1.213   2.857 -23.056  0.00  0.00    +0.071 A 
ATOM      7  C   UNL     1      -1.766   2.511 -21.901  0.00  0.00    +0.028 A 
ATOM      8  C   UNL     1      -1.077   1.795 -21.022  0.00  0.00    +0.002 A 
ATOM      9  C   UNL     1       0.166   1.425 -21.298  0.00  0.00    +0.001 A 
ATOM     10  C   UNL     1       0.721   1.771 -22.453  0.00  0.00    +0.010 A 
ATOM     11  C   UNL     1       0.031   2.486 -23.332  0.00  0.00    +0.006 A 
ENDBRANCH   1   2
BRANCH   1  18
ATOM     12  C   UNL     1       4.906   4.290 -22.972  0.00  0.00    +0.060 C 
ATOM     13  C   UNL     1       3.749   4.946 -23.157  0.00  0.00    +0.139 C 
ATOM     14  N   UNL     1       2.724   4.325 -23.758  0.00  0.00    +0.240 N 
ATOM     15  H   UNL     1       1.777   4.618 -23.999  0.00  0.00    +0.204 HD
ATOM     16  C   UNL     1       3.749   4.244 -23.412  0.00  0.00    +0.132 C 
ATOM     17  C   UNL     1       4.070   3.178 -23.682  0.00  0.00    +0.055 C 
ATOM     18  C   UNL     1       2.848   3.070 -24.169  0.00  0.00    +0.098 C 
ATOM     19  C   UNL     1       4.005   2.414 -23.983  0.00  0.00    +0.062 C 
ATOM     20  C   UNL     1       5.023   3.021 -23.390  0.00  0.00    +0.011 C 
BRANCH  12  22
ATOM     21  C   UNL     1       6.898   4.180 -21.807  0.00  0.00    +0.004 C 
ATOM     22  C   UNL     1       5.938   4.900 -22.373  0.00  0.00    -0.026 C 
ENDBRANCH  12  22
ENDBRANCH   1  18
BRANCH   1  23
ATOM     23  O   UNL     1       2.054   1.484 -25.630  0.00  0.00    -0.382 OA
ATOM     24  H   UNL     1       1.208   1.145 -25.960  0.00  0.00    +0.211 HD
ENDBRANCH   1  23
TORSDOF 4
ENDMDL
