MODEL 1
REMARK VINA RESULT:    -9.379      0.000      0.000
REMARK INTER + INTRA:         -10.328
REMARK INTER:                 -10.099
REMARK INTRA:                  -0.229
REMARK UNBOUND:                 0.147
REMARK  Name = CC[N@@+]1(C)CCc2cc3c(c4c2[C@H]1Cc1ccc(OC)cc1-4)OCO3                  ZINC000249692481
REMARK  5 active torsions:
REMARK  status: ('A' for Active; 'I' for Inactive)
REMARK    1  A    between atoms: C_1  and  C_2
REMARK    2  A    between atoms: C_2  and  N_3
REMARK    3  A    between atoms: N_3  and  C_4
REMARK    4  A    between atoms: C_18  and  O_19
REMARK    5  A    between atoms: O_19  and  C_20
REMARK                            x       y       z     vdW  Elec       q    Type
REMARK                         _______ _______ _______ _____ _____    ______ ____
ROOT
ATOM      1  N   UNL     1       0.946   2.103 -22.303  0.00  0.00    +0.247 N 
ATOM      2  C   UNL     1       1.735   2.215 -23.329  0.00  0.00    +0.138 C 
ATOM      3  C   UNL     1       1.257   2.594 -24.477  0.00  0.00    +0.086 C 
ATOM      4  C   UNL     1      -0.010   2.861 -24.599  0.00  0.00    -0.030 A 
ATOM      5  C   UNL     1      -0.487   3.240 -25.747  0.00  0.00    +0.054 A 
ATOM      6  C   UNL     1      -1.753   3.507 -25.869  0.00  0.00    +0.167 A 
ATOM      7  C   UNL     1      -2.542   3.395 -24.841  0.00  0.00    +0.174 A 
ATOM      8  O   UNL     1      -3.744   3.715 -25.221  0.00  0.00    -0.452 OA
ATOM      9  C   UNL     1      -3.697   4.025 -26.483  0.00  0.00    +0.466 C 
ATOM     10  C   UNL     1      -2.064   3.016 -23.693  0.00  0.00    +0.037 A 
ATOM     11  C   UNL     1      -2.854   2.904 -22.666  0.00  0.00    -0.007 A 
ATOM     12  C   UNL     1      -4.121   3.171 -22.787  0.00  0.00    +0.054 A 
ATOM     13  C   UNL     1      -4.909   3.059 -21.760  0.00  0.00    +0.121 A 
ATOM     14  C   UNL     1      -4.432   2.680 -20.612  0.00  0.00    +0.046 A 
ATOM     15  C   UNL     1      -3.166   2.413 -20.491  0.00  0.00    +0.008 A 
ATOM     16  C   UNL     1      -2.376   2.525 -21.518  0.00  0.00    -0.034 A 
ATOM     17  C   UNL     1      -1.110   2.258 -21.396  0.00  0.00    +0.095 C 
ATOM     18  O   UNL     1      -2.467   3.896 -26.883  0.00  0.00    -0.453 OA
ATOM     19  C   UNL     1      -0.798   2.749 -23.572  0.00  0.00    +0.015 A 
ATOM     20  C   UNL     1       0.549   1.870 -21.086  0.00  0.00    +0.193 C 
ATOM     21  C   UNL     1      -0.321   2.370 -22.424  0.00  0.00    +0.102 C 
ENDROOT
BRANCH   1  23
ATOM     22  C   UNL     1       2.612   0.610 -22.055  0.00  0.00    +0.060 C 
ATOM     23  C   UNL     1       2.074   1.755 -21.759  0.00  0.00    +0.130 C 
ENDBRANCH   1  23
BRANCH  13  24
ATOM     24  O   UNL     1      -6.176   3.326 -21.881  0.00  0.00    -0.495 OA
ATOM     25  C   UNL     1      -7.057   2.384 -21.720  0.00  0.00    +0.277 C 
ENDBRANCH  13  24
TORSDOF 2
ENDMDL
MODEL 2
REMARK VINA RESULT:    -8.628      2.384      5.173
REMARK INTER + INTRA:          -9.490
REMARK INTER:                  -9.187
REMARK INTRA:                  -0.303
REMARK UNBOUND:                 0.147
REMARK  Name = CC[N@@+]1(C)CCc2cc3c(c4c2[C@H]1Cc1ccc(OC)cc1-4)OCO3                  ZINC000249692481
REMARK  5 active torsions:
REMARK  status: ('A' for Active; 'I' for Inactive)
REMARK    1  A    between atoms: C_1  and  C_2
REMARK    2  A    between atoms: C_2  and  N_3
REMARK    3  A    between atoms: N_3  and  C_4
REMARK    4  A    between atoms: C_18  and  O_19
REMARK    5  A    between atoms: O_19  and  C_20
REMARK                            x       y       z     vdW  Elec       q    Type
REMARK                         _______ _______ _______ _____ _____    ______ ____
ROOT
ATOM      1  N   UNL     1      -3.720   3.192 -22.518  0.00  0.00    +0.247 N 
ATOM      2  C   UNL     1      -4.211   3.705 -23.606  0.00  0.00    +0.138 C 
ATOM      3  C   UNL     1      -3.438   3.922 -24.628  0.00  0.00    +0.086 C 
ATOM      4  C   UNL     1      -2.173   3.627 -24.562  0.00  0.00    -0.030 A 
ATOM      5  C   UNL     1      -1.401   3.844 -25.585  0.00  0.00    +0.054 A 
ATOM      6  C   UNL     1      -0.137   3.549 -25.518  0.00  0.00    +0.167 A 
ATOM      7  C   UNL     1       0.354   3.036 -24.429  0.00  0.00    +0.174 A 
ATOM      8  O   UNL     1       1.625   2.834 -24.617  0.00  0.00    -0.452 OA
ATOM      9  C   UNL     1       1.919   3.223 -25.823  0.00  0.00    +0.466 C 
ATOM     10  C   UNL     1      -0.419   2.818 -23.407  0.00  0.00    +0.037 A 
ATOM     11  C   UNL     1       0.073   2.305 -22.318  0.00  0.00    -0.007 A 
ATOM     12  C   UNL     1       1.337   2.010 -22.251  0.00  0.00    +0.054 A 
ATOM     13  C   UNL     1       1.827   1.497 -21.162  0.00  0.00    +0.121 A 
ATOM     14  C   UNL     1       1.055   1.280 -20.140  0.00  0.00    +0.046 A 
ATOM     15  C   UNL     1      -0.209   1.575 -20.207  0.00  0.00    +0.008 A 
ATOM     16  C   UNL     1      -0.701   2.088 -21.295  0.00  0.00    -0.034 A 
ATOM     17  C   UNL     1      -1.965   2.384 -21.362  0.00  0.00    +0.095 C 
ATOM     18  O   UNL     1       0.830   3.664 -26.380  0.00  0.00    -0.453 OA
ATOM     19  C   UNL     1      -1.683   3.114 -23.474  0.00  0.00    +0.015 A 
ATOM     20  C   UNL     1      -3.661   2.726 -21.305  0.00  0.00    +0.193 C 
ATOM     21  C   UNL     1      -2.455   2.896 -22.451  0.00  0.00    +0.102 C 
ENDROOT
BRANCH   1  23
ATOM     22  C   UNL     1      -5.495   2.482 -21.329  0.00  0.00    +0.060 C 
ATOM     23  C   UNL     1      -4.963   3.326 -22.163  0.00  0.00    +0.130 C 
ENDBRANCH   1  23
BRANCH  13  24
ATOM     24  O   UNL     1       3.092   1.201 -21.095  0.00  0.00    -0.495 OA
ATOM     25  C   UNL     1       3.690   0.666 -22.118  0.00  0.00    +0.277 C 
ENDBRANCH  13  24
TORSDOF 2
ENDMDL
MODEL 3
REMARK VINA RESULT:    -8.253      1.411      3.870
REMARK INTER + INTRA:          -9.071
REMARK INTER:                  -8.810
REMARK INTRA:                  -0.260
REMARK UNBOUND:                 0.147
REMARK  Name = CC[N@@+]1(C)CCc2cc3c(c4c2[C@H]1Cc1ccc(OC)cc1-4)OCO3                  ZINC000249692481
REMARK  5 active torsions:
REMARK  status: ('A' for Active; 'I' for Inactive)
REMARK    1  A    between atoms: C_1  and  C_2
REMARK    2  A    between atoms: C_2  and  N_3
REMARK    3  A    between atoms: N_3  and  C_4
REMARK    4  A    between atoms: C_18  and  O_19
REMARK    5  A    between atoms: O_19  and  C_20
REMARK                            x       y       z     vdW  Elec       q    Type
REMARK                         _______ _______ _______ _____ _____    ______ ____
ROOT
ATOM      1  N   UNL     1       1.654   2.421 -24.048  0.00  0.00    +0.247 N 
ATOM      2  C   UNL     1       2.123   2.041 -22.898  0.00  0.00    +0.138 C 
ATOM      3  C   UNL     1       1.322   1.905 -21.883  0.00  0.00    +0.086 C 
ATOM      4  C   UNL     1       0.052   2.148 -22.018  0.00  0.00    -0.030 A 
ATOM      5  C   UNL     1      -0.748   2.012 -21.003  0.00  0.00    +0.054 A 
ATOM      6  C   UNL     1      -2.018   2.255 -21.139  0.00  0.00    +0.167 A 
ATOM      7  C   UNL     1      -2.487   2.635 -22.291  0.00  0.00    +0.174 A 
ATOM      8  O   UNL     1      -3.769   2.812 -22.164  0.00  0.00    -0.452 OA
ATOM      9  C   UNL     1      -4.091   2.540 -20.933  0.00  0.00    +0.466 C 
ATOM     10  C   UNL     1      -1.686   2.772 -23.306  0.00  0.00    +0.037 A 
ATOM     11  C   UNL     1      -2.156   3.152 -24.457  0.00  0.00    -0.007 A 
ATOM     12  C   UNL     1      -3.426   3.395 -24.593  0.00  0.00    +0.054 A 
ATOM     13  C   UNL     1      -3.894   3.775 -25.744  0.00  0.00    +0.121 A 
ATOM     14  C   UNL     1      -3.095   3.912 -26.759  0.00  0.00    +0.046 A 
ATOM     15  C   UNL     1      -1.825   3.668 -26.623  0.00  0.00    +0.008 A 
ATOM     16  C   UNL     1      -1.355   3.288 -25.472  0.00  0.00    -0.034 A 
ATOM     17  C   UNL     1      -0.085   3.045 -25.336  0.00  0.00    +0.095 C 
ATOM     18  O   UNL     1      -3.010   2.196 -20.300  0.00  0.00    -0.453 OA
ATOM     19  C   UNL     1      -0.417   2.528 -23.169  0.00  0.00    +0.015 A 
ATOM     20  C   UNL     1       1.621   2.757 -25.304  0.00  0.00    +0.193 C 
ATOM     21  C   UNL     1       0.383   2.665 -24.185  0.00  0.00    +0.102 C 
ENDROOT
BRANCH   1  23
ATOM     22  C   UNL     1       3.449   1.112 -24.409  0.00  0.00    +0.060 C 
ATOM     23  C   UNL     1       2.912   2.294 -24.348  0.00  0.00    +0.130 C 
ENDBRANCH   1  23
BRANCH  13  24
ATOM     24  O   UNL     1      -5.165   4.019 -25.881  0.00  0.00    -0.495 OA
ATOM     25  C   UNL     1      -5.941   4.021 -24.839  0.00  0.00    +0.277 C 
ENDBRANCH  13  24
TORSDOF 2
ENDMDL
MODEL 4
REMARK VINA RESULT:    -8.125      4.819      8.207
REMARK INTER + INTRA:          -8.928
REMARK INTER:                  -8.598
REMARK INTRA:                  -0.330
REMARK UNBOUND:                 0.147
REMARK  Name = CC[N@@+]1(C)CCc2cc3c(c4c2[C@H]1Cc1ccc(OC)cc1-4)OCO3                  ZINC000249692481
REMARK  5 active torsions:
REMARK  status: ('A' for Active; 'I' for Inactive)
REMARK    1  A    between atoms: C_1  and  C_2
REMARK    2  A    between atoms: C_2  and  N_3
REMARK    3  A    between atoms: N_3  and  C_4
REMARK    4  A    between atoms: C_18  and  O_19
REMARK    5  A    between atoms: O_19  and  C_20
REMARK                            x       y       z     vdW  Elec       q    Type
REMARK                         _______ _______ _______ _____ _____    ______ ____
ROOT
ATOM      1  N   UNL     1       1.046   4.075 -23.505  0.00  0.00    +0.247 N 
ATOM      2  C   UNL     1       0.189   3.111 -23.342  0.00  0.00    +0.138 C 
ATOM      3  C   UNL     1       0.555   2.008 -22.758  0.00  0.00    +0.086 C 
ATOM      4  C   UNL     1       1.777   1.869 -22.338  0.00  0.00    -0.030 A 
ATOM      5  C   UNL     1       2.142   0.766 -21.755  0.00  0.00    +0.054 A 
ATOM      6  C   UNL     1       3.365   0.627 -21.334  0.00  0.00    +0.167 A 
ATOM      7  C   UNL     1       4.222   1.592 -21.497  0.00  0.00    +0.174 A 
ATOM      8  O   UNL     1       5.358   1.208 -20.996  0.00  0.00    -0.452 OA
ATOM      9  C   UNL     1       5.203   0.006 -20.524  0.00  0.00    +0.466 C 
ATOM     10  C   UNL     1       3.856   2.695 -22.080  0.00  0.00    +0.037 A 
ATOM     11  C   UNL     1       4.713   3.659 -22.243  0.00  0.00    -0.007 A 
ATOM     12  C   UNL     1       5.935   3.520 -21.823  0.00  0.00    +0.054 A 
ATOM     13  C   UNL     1       6.792   4.484 -21.986  0.00  0.00    +0.121 A 
ATOM     14  C   UNL     1       6.427   5.586 -22.569  0.00  0.00    +0.046 A 
ATOM     15  C   UNL     1       5.205   5.725 -22.989  0.00  0.00    +0.008 A 
ATOM     16  C   UNL     1       4.347   4.761 -22.826  0.00  0.00    -0.034 A 
ATOM     17  C   UNL     1       3.125   4.900 -23.247  0.00  0.00    +0.095 C 
ATOM     18  O   UNL     1       3.972  -0.352 -20.732  0.00  0.00    -0.453 OA
ATOM     19  C   UNL     1       2.634   2.833 -22.501  0.00  0.00    +0.015 A 
ATOM     20  C   UNL     1       1.538   5.226 -23.856  0.00  0.00    +0.193 C 
ATOM     21  C   UNL     1       2.269   3.936 -23.084  0.00  0.00    +0.102 C 
ENDROOT
BRANCH   1  23
ATOM     22  C   UNL     1      -0.852   5.269 -23.311  0.00  0.00    +0.060 C 
ATOM     23  C   UNL     1      -0.005   4.613 -24.047  0.00  0.00    +0.130 C 
ENDBRANCH   1  23
BRANCH  13  24
ATOM     24  O   UNL     1       8.015   4.345 -21.565  0.00  0.00    -0.495 OA
ATOM     25  C   UNL     1       8.484   5.147 -20.657  0.00  0.00    +0.277 C 
ENDBRANCH  13  24
TORSDOF 2
ENDMDL
MODEL 5
REMARK VINA RESULT:    -7.719      2.333      5.941
REMARK INTER + INTRA:          -8.474
REMARK INTER:                  -8.243
REMARK INTRA:                  -0.231
REMARK UNBOUND:                 0.147
REMARK  Name = CC[N@@+]1(C)CCc2cc3c(c4c2[C@H]1Cc1ccc(OC)cc1-4)OCO3                  ZINC000249692481
REMARK  5 active torsions:
REMARK  status: ('A' for Active; 'I' for Inactive)
REMARK    1  A    between atoms: C_1  and  C_2
REMARK    2  A    between atoms: C_2  and  N_3
REMARK    3  A    between atoms: N_3  and  C_4
REMARK    4  A    between atoms: C_18  and  O_19
REMARK    5  A    between atoms: O_19  and  C_20
REMARK                            x       y       z     vdW  Elec       q    Type
REMARK                         _______ _______ _______ _____ _____    ______ ____
ROOT
ATOM      1  N   UNL     1      -3.594   3.578 -26.011  0.00  0.00    +0.247 N 
ATOM      2  C   UNL     1      -4.844   3.809 -25.740  0.00  0.00    +0.138 C 
ATOM      3  C   UNL     1      -5.243   3.856 -24.503  0.00  0.00    +0.086 C 
ATOM      4  C   UNL     1      -4.392   3.671 -23.538  0.00  0.00    -0.030 A 
ATOM      5  C   UNL     1      -4.792   3.717 -22.302  0.00  0.00    +0.054 A 
ATOM      6  C   UNL     1      -3.941   3.532 -21.336  0.00  0.00    +0.167 A 
ATOM      7  C   UNL     1      -2.690   3.300 -21.608  0.00  0.00    +0.174 A 
ATOM      8  O   UNL     1      -2.056   3.152 -20.483  0.00  0.00    -0.452 OA
ATOM      9  C   UNL     1      -2.915   3.293 -19.516  0.00  0.00    +0.466 C 
ATOM     10  C   UNL     1      -2.291   3.254 -22.844  0.00  0.00    +0.037 A 
ATOM     11  C   UNL     1      -1.041   3.022 -23.115  0.00  0.00    -0.007 A 
ATOM     12  C   UNL     1      -0.190   2.836 -22.150  0.00  0.00    +0.054 A 
ATOM     13  C   UNL     1       1.060   2.605 -22.422  0.00  0.00    +0.121 A 
ATOM     14  C   UNL     1       1.459   2.558 -23.657  0.00  0.00    +0.046 A 
ATOM     15  C   UNL     1       0.608   2.743 -24.622  0.00  0.00    +0.008 A 
ATOM     16  C   UNL     1      -0.642   2.975 -24.351  0.00  0.00    -0.034 A 
ATOM     17  C   UNL     1      -1.493   3.160 -25.317  0.00  0.00    +0.095 C 
ATOM     18  O   UNL     1      -4.079   3.528 -20.044  0.00  0.00    -0.453 OA
ATOM     19  C   UNL     1      -3.142   3.439 -23.809  0.00  0.00    +0.015 A 
ATOM     20  C   UNL     1      -2.508   3.387 -26.700  0.00  0.00    +0.193 C 
ATOM     21  C   UNL     1      -2.743   3.392 -25.045  0.00  0.00    +0.102 C 
ENDROOT
BRANCH   1  23
ATOM     22  C   UNL     1      -3.331   3.376 -28.237  0.00  0.00    +0.060 C 
ATOM     23  C   UNL     1      -4.068   3.697 -27.215  0.00  0.00    +0.130 C 
ENDBRANCH   1  23
BRANCH  13  24
ATOM     24  O   UNL     1       1.911   2.419 -21.456  0.00  0.00    -0.495 OA
ATOM     25  C   UNL     1       2.720   1.403 -21.489  0.00  0.00    +0.277 C 
ENDBRANCH  13  24
TORSDOF 2
ENDMDL
MODEL 6
REMARK VINA RESULT:    -7.597      1.934      5.024
REMARK INTER + INTRA:          -8.338
REMARK INTER:                  -8.066
REMARK INTRA:                  -0.272
REMARK UNBOUND:                 0.147
REMARK  Name = CC[N@@+]1(C)CCc2cc3c(c4c2[C@H]1Cc1ccc(OC)cc1-4)OCO3                  ZINC000249692481
REMARK  5 active torsions:
REMARK  status: ('A' for Active; 'I' for Inactive)
REMARK    1  A    between atoms: C_1  and  C_2
REMARK    2  A    between atoms: C_2  and  N_3
REMARK    3  A    between atoms: N_3  and  C_4
REMARK    4  A    between atoms: C_18  and  O_19
REMARK    5  A    between atoms: O_19  and  C_20
REMARK                            x       y       z     vdW  Elec       q    Type
REMARK                         _______ _______ _______ _____ _____    ______ ____
ROOT
ATOM      1  N   UNL     1      -3.597   3.319 -21.234  0.00  0.00    +0.247 N 
ATOM      2  C   UNL     1      -4.863   3.508 -21.458  0.00  0.00    +0.138 C 
ATOM      3  C   UNL     1      -5.297   3.617 -22.679  0.00  0.00    +0.086 C 
ATOM      4  C   UNL     1      -4.465   3.538 -23.675  0.00  0.00    -0.030 A 
ATOM      5  C   UNL     1      -4.901   3.648 -24.895  0.00  0.00    +0.054 A 
ATOM      6  C   UNL     1      -4.069   3.569 -25.891  0.00  0.00    +0.167 A 
ATOM      7  C   UNL     1      -2.802   3.380 -25.666  0.00  0.00    +0.174 A 
ATOM      8  O   UNL     1      -2.192   3.338 -26.814  0.00  0.00    -0.452 OA
ATOM      9  C   UNL     1      -3.083   3.501 -27.747  0.00  0.00    +0.466 C 
ATOM     10  C   UNL     1      -2.367   3.270 -24.446  0.00  0.00    +0.037 A 
ATOM     11  C   UNL     1      -1.101   3.082 -24.222  0.00  0.00    -0.007 A 
ATOM     12  C   UNL     1      -0.269   3.003 -25.218  0.00  0.00    +0.054 A 
ATOM     13  C   UNL     1       0.997   2.814 -24.993  0.00  0.00    +0.121 A 
ATOM     14  C   UNL     1       1.432   2.705 -23.774  0.00  0.00    +0.046 A 
ATOM     15  C   UNL     1       0.601   2.784 -22.778  0.00  0.00    +0.008 A 
ATOM     16  C   UNL     1      -0.666   2.972 -23.001  0.00  0.00    -0.034 A 
ATOM     17  C   UNL     1      -1.498   3.051 -22.005  0.00  0.00    +0.095 C 
ATOM     18  O   UNL     1      -4.242   3.644 -27.177  0.00  0.00    -0.453 OA
ATOM     19  C   UNL     1      -3.199   3.350 -23.451  0.00  0.00    +0.015 A 
ATOM     20  C   UNL     1      -2.484   3.136 -20.585  0.00  0.00    +0.193 C 
ATOM     21  C   UNL     1      -2.764   3.240 -22.231  0.00  0.00    +0.102 C 
ENDROOT
BRANCH   1  23
ATOM     22  C   UNL     1      -3.278   3.752 -19.048  0.00  0.00    +0.060 C 
ATOM     23  C   UNL     1      -4.042   3.334 -20.013  0.00  0.00    +0.130 C 
ENDBRANCH   1  23
BRANCH  13  24
ATOM     24  O   UNL     1       1.830   2.735 -25.989  0.00  0.00    -0.495 OA
ATOM     25  C   UNL     1       2.229   1.573 -26.412  0.00  0.00    +0.277 C 
ENDBRANCH  13  24
TORSDOF 2
ENDMDL
MODEL 7
REMARK VINA RESULT:    -7.591      2.735      6.406
REMARK INTER + INTRA:          -8.331
REMARK INTER:                  -7.942
REMARK INTRA:                  -0.389
REMARK UNBOUND:                 0.147
REMARK  Name = CC[N@@+]1(C)CCc2cc3c(c4c2[C@H]1Cc1ccc(OC)cc1-4)OCO3                  ZINC000249692481
REMARK  5 active torsions:
REMARK  status: ('A' for Active; 'I' for Inactive)
REMARK    1  A    between atoms: C_1  and  C_2
REMARK    2  A    between atoms: C_2  and  N_3
REMARK    3  A    between atoms: N_3  and  C_4
REMARK    4  A    between atoms: C_18  and  O_19
REMARK    5  A    between atoms: O_19  and  C_20
REMARK                            x       y       z     vdW  Elec       q    Type
REMARK                         _______ _______ _______ _____ _____    ______ ____
ROOT
ATOM      1  N   UNL     1      -3.698   3.741 -23.809  0.00  0.00    +0.247 N 
ATOM      2  C   UNL     1      -4.392   3.387 -22.770  0.00  0.00    +0.138 C 
ATOM      3  C   UNL     1      -3.806   2.808 -21.764  0.00  0.00    +0.086 C 
ATOM      4  C   UNL     1      -2.526   2.583 -21.798  0.00  0.00    -0.030 A 
ATOM      5  C   UNL     1      -1.941   2.004 -20.791  0.00  0.00    +0.054 A 
ATOM      6  C   UNL     1      -0.661   1.780 -20.825  0.00  0.00    +0.167 A 
ATOM      7  C   UNL     1       0.034   2.135 -21.866  0.00  0.00    +0.174 A 
ATOM      8  O   UNL     1       1.273   1.804 -21.654  0.00  0.00    -0.452 OA
ATOM      9  C   UNL     1       1.344   1.244 -20.482  0.00  0.00    +0.466 C 
ATOM     10  C   UNL     1      -0.552   2.714 -22.872  0.00  0.00    +0.037 A 
ATOM     11  C   UNL     1       0.143   3.069 -23.912  0.00  0.00    -0.007 A 
ATOM     12  C   UNL     1       1.423   2.845 -23.945  0.00  0.00    +0.054 A 
ATOM     13  C   UNL     1       2.117   3.200 -24.986  0.00  0.00    +0.121 A 
ATOM     14  C   UNL     1       1.532   3.779 -25.991  0.00  0.00    +0.046 A 
ATOM     15  C   UNL     1       0.252   4.003 -25.957  0.00  0.00    +0.008 A 
ATOM     16  C   UNL     1      -0.443   3.648 -24.917  0.00  0.00    -0.034 A 
ATOM     17  C   UNL     1      -1.723   3.872 -24.884  0.00  0.00    +0.095 C 
ATOM     18  O   UNL     1       0.149   1.230 -19.970  0.00  0.00    -0.453 OA
ATOM     19  C   UNL     1      -1.832   2.938 -22.837  0.00  0.00    +0.015 A 
ATOM     20  C   UNL     1      -3.413   4.234 -24.979  0.00  0.00    +0.193 C 
ATOM     21  C   UNL     1      -2.417   3.517 -23.843  0.00  0.00    +0.102 C 
ENDROOT
BRANCH   1  23
ATOM     22  C   UNL     1      -5.393   3.692 -25.290  0.00  0.00    +0.060 C 
ATOM     23  C   UNL     1      -4.879   4.136 -24.181  0.00  0.00    +0.130 C 
ENDBRANCH   1  23
BRANCH  13  24
ATOM     24  O   UNL     1       3.398   2.976 -25.020  0.00  0.00    -0.495 OA
ATOM     25  C   UNL     1       3.956   2.255 -24.095  0.00  0.00    +0.277 C 
ENDBRANCH  13  24
TORSDOF 2
ENDMDL
MODEL 8
REMARK VINA RESULT:    -7.206      1.537      2.518
REMARK INTER + INTRA:          -7.902
REMARK INTER:                  -8.049
REMARK INTRA:                   0.147
REMARK UNBOUND:                 0.147
REMARK  Name = CC[N@@+]1(C)CCc2cc3c(c4c2[C@H]1Cc1ccc(OC)cc1-4)OCO3                  ZINC000249692481
REMARK  5 active torsions:
REMARK  status: ('A' for Active; 'I' for Inactive)
REMARK    1  A    between atoms: C_1  and  C_2
REMARK    2  A    between atoms: C_2  and  N_3
REMARK    3  A    between atoms: N_3  and  C_4
REMARK    4  A    between atoms: C_18  and  O_19
REMARK    5  A    between atoms: O_19  and  C_20
REMARK                            x       y       z     vdW  Elec       q    Type
REMARK                         _______ _______ _______ _____ _____    ______ ____
ROOT
ATOM      1  N   UNL     1       2.564   1.415 -21.078  0.00  0.00    +0.247 N 
ATOM      2  C   UNL     1       3.680   1.524 -21.734  0.00  0.00    +0.138 C 
ATOM      3  C   UNL     1       3.685   2.038 -22.928  0.00  0.00    +0.086 C 
ATOM      4  C   UNL     1       2.573   2.444 -23.465  0.00  0.00    -0.030 A 
ATOM      5  C   UNL     1       2.578   2.959 -24.659  0.00  0.00    +0.054 A 
ATOM      6  C   UNL     1       1.467   3.365 -25.197  0.00  0.00    +0.167 A 
ATOM      7  C   UNL     1       0.349   3.256 -24.540  0.00  0.00    +0.174 A 
ATOM      8  O   UNL     1      -0.604   3.728 -25.288  0.00  0.00    -0.452 OA
ATOM      9  C   UNL     1      -0.075   4.128 -26.407  0.00  0.00    +0.466 C 
ATOM     10  C   UNL     1       0.345   2.741 -23.346  0.00  0.00    +0.037 A 
ATOM     11  C   UNL     1      -0.773   2.633 -22.690  0.00  0.00    -0.007 A 
ATOM     12  C   UNL     1      -1.885   3.039 -23.228  0.00  0.00    +0.054 A 
ATOM     13  C   UNL     1      -3.001   2.929 -22.571  0.00  0.00    +0.121 A 
ATOM     14  C   UNL     1      -3.007   2.415 -21.378  0.00  0.00    +0.046 A 
ATOM     15  C   UNL     1      -1.895   2.010 -20.840  0.00  0.00    +0.008 A 
ATOM     16  C   UNL     1      -0.777   2.118 -21.496  0.00  0.00    -0.034 A 
ATOM     17  C   UNL     1       0.334   1.712 -20.959  0.00  0.00    +0.095 C 
ATOM     18  O   UNL     1       1.204   3.904 -26.350  0.00  0.00    -0.453 OA
ATOM     19  C   UNL     1       1.456   2.336 -22.809  0.00  0.00    +0.015 A 
ATOM     20  C   UNL     1       1.732   1.131 -20.119  0.00  0.00    +0.193 C 
ATOM     21  C   UNL     1       1.451   1.821 -21.616  0.00  0.00    +0.102 C 
ENDROOT
BRANCH   1  23
ATOM     22  C   UNL     1       4.412   0.220 -20.607  0.00  0.00    +0.060 C 
ATOM     23  C   UNL     1       3.386   0.911 -20.207  0.00  0.00    +0.130 C 
ENDBRANCH   1  23
BRANCH  13  24
ATOM     24  O   UNL     1      -4.114   3.336 -23.109  0.00  0.00    -0.495 OA
ATOM     25  C   UNL     1      -5.196   3.401 -22.392  0.00  0.00    +0.277 C 
ENDBRANCH  13  24
TORSDOF 2
ENDMDL
MODEL 9
REMARK VINA RESULT:    -7.103      4.004      5.744
REMARK INTER + INTRA:          -7.786
REMARK INTER:                  -7.512
REMARK INTRA:                  -0.275
REMARK UNBOUND:                 0.147
REMARK  Name = CC[N@@+]1(C)CCc2cc3c(c4c2[C@H]1Cc1ccc(OC)cc1-4)OCO3                  ZINC000249692481
REMARK  5 active torsions:
REMARK  status: ('A' for Active; 'I' for Inactive)
REMARK    1  A    between atoms: C_1  and  C_2
REMARK    2  A    between atoms: C_2  and  N_3
REMARK    3  A    between atoms: N_3  and  C_4
REMARK    4  A    between atoms: C_18  and  O_19
REMARK    5  A    between atoms: O_19  and  C_20
REMARK                            x       y       z     vdW  Elec       q    Type
REMARK                         _______ _______ _______ _____ _____    ______ ____
ROOT
ATOM      1  N   UNL     1       4.394   6.279 -22.477  0.00  0.00    +0.247 N 
ATOM      2  C   UNL     1       5.619   5.847 -22.482  0.00  0.00    +0.138 C 
ATOM      3  C   UNL     1       5.877   4.630 -22.862  0.00  0.00    +0.086 C 
ATOM      4  C   UNL     1       4.909   3.847 -23.236  0.00  0.00    -0.030 A 
ATOM      5  C   UNL     1       5.168   2.631 -23.616  0.00  0.00    +0.054 A 
ATOM      6  C   UNL     1       4.201   1.847 -23.989  0.00  0.00    +0.167 A 
ATOM      7  C   UNL     1       2.974   2.280 -23.983  0.00  0.00    +0.174 A 
ATOM      8  O   UNL     1       2.205   1.316 -24.395  0.00  0.00    -0.452 OA
ATOM      9  C   UNL     1       2.957   0.287 -24.656  0.00  0.00    +0.466 C 
ATOM     10  C   UNL     1       2.716   3.497 -23.604  0.00  0.00    +0.037 A 
ATOM     11  C   UNL     1       1.490   3.929 -23.598  0.00  0.00    -0.007 A 
ATOM     12  C   UNL     1       0.523   3.146 -23.972  0.00  0.00    +0.054 A 
ATOM     13  C   UNL     1      -0.703   3.579 -23.966  0.00  0.00    +0.121 A 
ATOM     14  C   UNL     1      -0.961   4.794 -23.586  0.00  0.00    +0.046 A 
ATOM     15  C   UNL     1       0.006   5.578 -23.212  0.00  0.00    +0.008 A 
ATOM     16  C   UNL     1       1.233   5.146 -23.218  0.00  0.00    -0.034 A 
ATOM     17  C   UNL     1       2.200   5.929 -22.844  0.00  0.00    +0.095 C 
ATOM     18  O   UNL     1       4.189   0.615 -24.405  0.00  0.00    -0.453 OA
ATOM     19  C   UNL     1       3.684   4.279 -23.230  0.00  0.00    +0.015 A 
ATOM     20  C   UNL     1       3.382   7.081 -22.322  0.00  0.00    +0.193 C 
ATOM     21  C   UNL     1       3.426   5.496 -22.851  0.00  0.00    +0.102 C 
ENDROOT
BRANCH   1  23
ATOM     22  C   UNL     1       4.409   8.158 -21.237  0.00  0.00    +0.060 C 
ATOM     23  C   UNL     1       5.010   7.341 -22.049  0.00  0.00    +0.130 C 
ENDBRANCH   1  23
BRANCH  13  24
ATOM     24  O   UNL     1      -1.671   2.795 -24.340  0.00  0.00    -0.495 OA
ATOM     25  C   UNL     1      -2.551   3.214 -25.199  0.00  0.00    +0.277 C 
ENDBRANCH  13  24
TORSDOF 2
ENDMDL
