MODEL 1
REMARK VINA RESULT:   -11.299      0.000      0.000
REMARK INTER + INTRA:         -12.095
REMARK INTER:                 -11.945
REMARK INTRA:                  -0.151
REMARK UNBOUND:                -0.135
REMARK  Name = COc1ccc2c3c1O[C@@]1(C)C(=O)C=C[C@]4(Br)[C@@H](C2)N(C)CC[C@@]314      ZINC000100393736
REMARK  4 active torsions:
REMARK  status: ('A' for Active; 'I' for Inactive)
REMARK    1  A    between atoms: C_1  and  O_2
REMARK    2  A    between atoms: O_2  and  C_3
REMARK    3  A    between atoms: C_10  and  C_11
REMARK    4  A    between atoms: N_20  and  C_21
REMARK                            x       y       z     vdW  Elec       q    Type
REMARK                         _______ _______ _______ _____ _____    ______ ____
ROOT
ATOM      1  C   UNL     1       0.831   2.240 -23.197  0.00  0.00    +0.162 A 
ATOM      2  C   UNL     1       0.797   1.890 -21.980  0.00  0.00    +0.050 A 
ATOM      3  C   UNL     1      -0.279   1.920 -21.339  0.00  0.00    +0.008 A 
ATOM      4  C   UNL     1      -1.330   2.300 -21.903  0.00  0.00    -0.034 A 
ATOM      5  C   UNL     1      -1.321   2.655 -23.117  0.00  0.00    +0.014 A 
ATOM      6  C   UNL     1      -2.373   3.034 -23.677  0.00  0.00    +0.075 C 
ATOM      7  C   UNL     1      -3.507   3.483 -24.420  0.00  0.00    +0.069 C 
ATOM      8  C   UNL     1      -4.734   3.527 -23.722  0.00  0.00    +0.132 C 
ATOM      9  N   UNL     1      -4.733   3.130 -22.370  0.00  0.00    +0.237 N 
ATOM     10  H   UNL     1      -5.600   3.148 -21.832  0.00  0.00    +0.203 HD
ATOM     11  C   UNL     1      -5.780   3.141 -21.682  0.00  0.00    +0.191 C 
ATOM     12  C   UNL     1      -3.485   2.714 -21.819  0.00  0.00    +0.090 C 
ATOM     13  C   UNL     1      -3.445   3.064 -23.036  0.00  0.00    +0.101 C 
ATOM     14 BR   UNL     1      -2.395   2.683 -22.467  0.00  0.00    -0.073 Br
ATOM     15  C   UNL     1      -4.514   3.446 -23.596  0.00  0.00    +0.001 C 
ATOM     16  C   UNL     1      -4.496   3.797 -24.802  0.00  0.00    +0.048 C 
ATOM     17  C   UNL     1      -3.414   3.771 -25.464  0.00  0.00    +0.200 C 
ATOM     18  O   UNL     1      -3.400   4.121 -26.665  0.00  0.00    -0.288 OA
ATOM     19  C   UNL     1      -2.356   3.390 -24.901  0.00  0.00    +0.181 C 
ATOM     20  C   UNL     1      -2.048   3.675 -26.085  0.00  0.00    +0.065 C 
ATOM     21  O   UNL     1      -0.871   3.127 -25.033  0.00  0.00    -0.473 OA
ATOM     22  C   UNL     1      -2.432   2.334 -21.257  0.00  0.00    +0.091 C 
ATOM     23  C   UNL     1      -0.236   2.625 -23.766  0.00  0.00    +0.168 A 
ENDROOT
BRANCH   1  25
ATOM     24  C   UNL     1       2.674   3.200 -23.823  0.00  0.00    +0.277 C 
ATOM     25  O   UNL     1       1.908   2.208 -23.834  0.00  0.00    -0.491 OA
ENDBRANCH   1  25
TORSDOF 1
ENDMDL
MODEL 2
REMARK VINA RESULT:   -10.856      1.963      3.117
REMARK INTER + INTRA:         -11.626
REMARK INTER:                 -11.509
REMARK INTRA:                  -0.118
REMARK UNBOUND:                -0.135
REMARK  Name = COc1ccc2c3c1O[C@@]1(C)C(=O)C=C[C@]4(Br)[C@@H](C2)N(C)CC[C@@]314      ZINC000100393736
REMARK  4 active torsions:
REMARK  status: ('A' for Active; 'I' for Inactive)
REMARK    1  A    between atoms: C_1  and  O_2
REMARK    2  A    between atoms: O_2  and  C_3
REMARK    3  A    between atoms: C_10  and  C_11
REMARK    4  A    between atoms: N_20  and  C_21
REMARK                            x       y       z     vdW  Elec       q    Type
REMARK                         _______ _______ _______ _____ _____    ______ ____
ROOT
ATOM      1  C   UNL     1       0.301   1.856 -21.643  0.00  0.00    +0.162 A 
ATOM      2  C   UNL     1       1.121   1.956 -22.603  0.00  0.00    +0.050 A 
ATOM      3  C   UNL     1       0.745   2.384 -23.719  0.00  0.00    +0.008 A 
ATOM      4  C   UNL     1      -0.450   2.717 -23.888  0.00  0.00    -0.034 A 
ATOM      5  C   UNL     1      -1.287   2.626 -22.945  0.00  0.00    +0.014 A 
ATOM      6  C   UNL     1      -2.480   2.960 -23.118  0.00  0.00    +0.075 C 
ATOM      7  C   UNL     1      -3.862   3.310 -23.197  0.00  0.00    +0.069 C 
ATOM      8  C   UNL     1      -4.313   3.796 -24.444  0.00  0.00    +0.132 C 
ATOM      9  N   UNL     1      -3.373   3.893 -25.488  0.00  0.00    +0.237 N 
ATOM     10  H   UNL     1      -3.660   4.240 -26.404  0.00  0.00    +0.203 HD
ATOM     11  C   UNL     1      -3.694   4.315 -26.623  0.00  0.00    +0.191 C 
ATOM     12  C   UNL     1      -2.037   3.489 -25.195  0.00  0.00    +0.090 C 
ATOM     13  C   UNL     1      -2.853   3.387 -24.232  0.00  0.00    +0.101 C 
ATOM     14 BR   UNL     1      -1.655   3.055 -24.066  0.00  0.00    -0.073 Br
ATOM     15  C   UNL     1      -4.058   3.727 -24.414  0.00  0.00    +0.001 C 
ATOM     16  C   UNL     1      -4.883   3.634 -23.471  0.00  0.00    +0.048 C 
ATOM     17  C   UNL     1      -4.517   3.202 -22.336  0.00  0.00    +0.200 C 
ATOM     18  O   UNL     1      -5.341   3.110 -21.399  0.00  0.00    -0.288 OA
ATOM     19  C   UNL     1      -3.318   2.866 -22.161  0.00  0.00    +0.181 C 
ATOM     20  C   UNL     1      -3.906   2.671 -21.069  0.00  0.00    +0.065 C 
ATOM     21  O   UNL     1      -2.276   2.329 -21.204  0.00  0.00    -0.473 OA
ATOM     22  C   UNL     1      -0.842   3.155 -25.023  0.00  0.00    +0.091 C 
ATOM     23  C   UNL     1      -0.910   2.194 -21.818  0.00  0.00    +0.168 A 
ENDROOT
BRANCH   1  25
ATOM     24  C   UNL     1       1.898   1.440 -20.234  0.00  0.00    +0.277 C 
ATOM     25  O   UNL     1       0.680   1.427 -20.530  0.00  0.00    -0.491 OA
ENDBRANCH   1  25
TORSDOF 1
ENDMDL
MODEL 3
REMARK VINA RESULT:   -10.820      0.857      1.074
REMARK INTER + INTRA:         -11.588
REMARK INTER:                 -11.471
REMARK INTRA:                  -0.116
REMARK UNBOUND:                -0.135
REMARK  Name = COc1ccc2c3c1O[C@@]1(C)C(=O)C=C[C@]4(Br)[C@@H](C2)N(C)CC[C@@]314      ZINC000100393736
REMARK  4 active torsions:
REMARK  status: ('A' for Active; 'I' for Inactive)
REMARK    1  A    between atoms: C_1  and  O_2
REMARK    2  A    between atoms: O_2  and  C_3
REMARK    3  A    between atoms: C_10  and  C_11
REMARK    4  A    between atoms: N_20  and  C_21
REMARK                            x       y       z     vdW  Elec       q    Type
REMARK                         _______ _______ _______ _____ _____    ______ ____
ROOT
ATOM      1  C   UNL     1       1.684   2.255 -23.753  0.00  0.00    +0.162 A 
ATOM      2  C   UNL     1       1.924   1.802 -22.595  0.00  0.00    +0.050 A 
ATOM      3  C   UNL     1       1.005   1.697 -21.750  0.00  0.00    +0.008 A 
ATOM      4  C   UNL     1      -0.161   2.043 -22.051  0.00  0.00    -0.034 A 
ATOM      5  C   UNL     1      -0.423   2.499 -23.201  0.00  0.00    +0.014 A 
ATOM      6  C   UNL     1      -1.589   2.843 -23.497  0.00  0.00    +0.075 C 
ATOM      7  C   UNL     1      -2.876   3.267 -23.948  0.00  0.00    +0.069 C 
ATOM      8  C   UNL     1      -3.931   3.160 -23.016  0.00  0.00    +0.132 C 
ATOM      9  N   UNL     1      -3.628   2.651 -21.738  0.00  0.00    +0.237 N 
ATOM     10  H   UNL     1      -4.363   2.558 -21.037  0.00  0.00    +0.203 HD
ATOM     11  C   UNL     1      -4.507   2.525 -20.856  0.00  0.00    +0.191 C 
ATOM     12  C   UNL     1      -2.271   2.285 -21.494  0.00  0.00    +0.090 C 
ATOM     13  C   UNL     1      -2.505   2.738 -22.653  0.00  0.00    +0.101 C 
ATOM     14 BR   UNL     1      -1.339   2.390 -22.348  0.00  0.00    -0.073 Br
ATOM     15  C   UNL     1      -3.686   3.085 -22.946  0.00  0.00    +0.001 C 
ATOM     16  C   UNL     1      -3.938   3.537 -24.090  0.00  0.00    +0.048 C 
ATOM     17  C   UNL     1      -3.018   3.648 -24.956  0.00  0.00    +0.200 C 
ATOM     18  O   UNL     1      -3.274   4.099 -26.095  0.00  0.00    -0.288 OA
ATOM     19  C   UNL     1      -1.846   3.302 -24.658  0.00  0.00    +0.181 C 
ATOM     20  C   UNL     1      -1.808   3.709 -25.846  0.00  0.00    +0.065 C 
ATOM     21  O   UNL     1      -0.409   3.163 -25.112  0.00  0.00    -0.473 OA
ATOM     22  C   UNL     1      -1.104   1.939 -21.195  0.00  0.00    +0.091 C 
ATOM     23  C   UNL     1       0.502   2.605 -24.055  0.00  0.00    +0.168 A 
ENDROOT
BRANCH   1  25
ATOM     24  C   UNL     1       3.801   2.247 -24.234  0.00  0.00    +0.277 C 
ATOM     25  O   UNL     1       2.606   2.358 -24.594  0.00  0.00    -0.491 OA
ENDBRANCH   1  25
TORSDOF 1
ENDMDL
MODEL 4
REMARK VINA RESULT:   -10.754      2.125      5.360
REMARK INTER + INTRA:         -11.518
REMARK INTER:                 -11.453
REMARK INTRA:                  -0.065
REMARK UNBOUND:                -0.135
REMARK  Name = COc1ccc2c3c1O[C@@]1(C)C(=O)C=C[C@]4(Br)[C@@H](C2)N(C)CC[C@@]314      ZINC000100393736
REMARK  4 active torsions:
REMARK  status: ('A' for Active; 'I' for Inactive)
REMARK    1  A    between atoms: C_1  and  O_2
REMARK    2  A    between atoms: O_2  and  C_3
REMARK    3  A    between atoms: C_10  and  C_11
REMARK    4  A    between atoms: N_20  and  C_21
REMARK                            x       y       z     vdW  Elec       q    Type
REMARK                         _______ _______ _______ _____ _____    ______ ____
ROOT
ATOM      1  C   UNL     1      -4.631   3.719 -23.092  0.00  0.00    +0.162 A 
ATOM      2  C   UNL     1      -4.797   4.164 -24.265  0.00  0.00    +0.050 A 
ATOM      3  C   UNL     1      -3.850   4.169 -25.085  0.00  0.00    +0.008 A 
ATOM      4  C   UNL     1      -2.727   3.731 -24.742  0.00  0.00    -0.034 A 
ATOM      5  C   UNL     1      -2.537   3.282 -23.576  0.00  0.00    +0.014 A 
ATOM      6  C   UNL     1      -1.415   2.845 -23.237  0.00  0.00    +0.075 C 
ATOM      7  C   UNL     1      -0.183   2.323 -22.739  0.00  0.00    +0.069 C 
ATOM      8  C   UNL     1       0.904   2.317 -23.641  0.00  0.00    +0.132 C 
ATOM      9  N   UNL     1       0.681   2.819 -24.938  0.00  0.00    +0.237 N 
ATOM     10  H   UNL     1       1.441   2.831 -25.619  0.00  0.00    +0.203 HD
ATOM     11  C   UNL     1       1.593   2.848 -25.796  0.00  0.00    +0.191 C 
ATOM     12  C   UNL     1      -0.632   3.295 -25.230  0.00  0.00    +0.090 C 
ATOM     13  C   UNL     1      -0.470   2.851 -24.056  0.00  0.00    +0.101 C 
ATOM     14 BR   UNL     1      -1.592   3.290 -24.403  0.00  0.00    -0.073 Br
ATOM     15  C   UNL     1       0.668   2.411 -23.720  0.00  0.00    +0.001 C 
ATOM     16  C   UNL     1       0.848   1.967 -22.559  0.00  0.00    +0.048 C 
ATOM     17  C   UNL     1      -0.102   1.955 -21.719  0.00  0.00    +0.200 C 
ATOM     18  O   UNL     1       0.081   1.512 -20.564  0.00  0.00    -0.288 OA
ATOM     19  C   UNL     1      -1.231   2.394 -22.059  0.00  0.00    +0.181 C 
ATOM     20  C   UNL     1      -1.337   2.021 -20.865  0.00  0.00    +0.065 C 
ATOM     21  O   UNL     1      -2.662   2.667 -21.651  0.00  0.00    -0.473 OA
ATOM     22  C   UNL     1      -1.755   3.732 -25.571  0.00  0.00    +0.091 C 
ATOM     23  C   UNL     1      -3.492   3.276 -22.747  0.00  0.00    +0.168 A 
ENDROOT
BRANCH   1  25
ATOM     24  C   UNL     1      -5.960   2.640 -21.758  0.00  0.00    +0.277 C 
ATOM     25  O   UNL     1      -5.581   3.716 -22.276  0.00  0.00    -0.491 OA
ENDBRANCH   1  25
TORSDOF 1
ENDMDL
MODEL 5
REMARK VINA RESULT:   -10.721      1.947      4.812
REMARK INTER + INTRA:         -11.483
REMARK INTER:                 -11.367
REMARK INTRA:                  -0.116
REMARK UNBOUND:                -0.135
REMARK  Name = COc1ccc2c3c1O[C@@]1(C)C(=O)C=C[C@]4(Br)[C@@H](C2)N(C)CC[C@@]314      ZINC000100393736
REMARK  4 active torsions:
REMARK  status: ('A' for Active; 'I' for Inactive)
REMARK    1  A    between atoms: C_1  and  O_2
REMARK    2  A    between atoms: O_2  and  C_3
REMARK    3  A    between atoms: C_10  and  C_11
REMARK    4  A    between atoms: N_20  and  C_21
REMARK                            x       y       z     vdW  Elec       q    Type
REMARK                         _______ _______ _______ _____ _____    ______ ____
ROOT
ATOM      1  C   UNL     1      -3.424   3.238 -23.137  0.00  0.00    +0.162 A 
ATOM      2  C   UNL     1      -3.662   2.708 -22.012  0.00  0.00    +0.050 A 
ATOM      3  C   UNL     1      -2.739   2.176 -21.351  0.00  0.00    +0.008 A 
ATOM      4  C   UNL     1      -1.572   2.168 -21.806  0.00  0.00    -0.034 A 
ATOM      5  C   UNL     1      -1.311   2.691 -22.927  0.00  0.00    +0.014 A 
ATOM      6  C   UNL     1      -0.144   2.681 -23.377  0.00  0.00    +0.075 C 
ATOM      7  C   UNL     1       1.144   2.730 -23.991  0.00  0.00    +0.069 C 
ATOM      8  C   UNL     1       2.204   2.138 -23.268  0.00  0.00    +0.132 C 
ATOM      9  N   UNL     1       1.902   1.558 -22.021  0.00  0.00    +0.237 N 
ATOM     10  H   UNL     1       2.640   1.120 -21.468  0.00  0.00    +0.203 HD
ATOM     11  C   UNL     1       2.785   1.013 -21.319  0.00  0.00    +0.191 C 
ATOM     12  C   UNL     1       0.543   1.619 -21.591  0.00  0.00    +0.090 C 
ATOM     13  C   UNL     1       0.775   2.150 -22.717  0.00  0.00    +0.101 C 
ATOM     14 BR   UNL     1      -0.392   2.156 -22.259  0.00  0.00    -0.073 Br
ATOM     15  C   UNL     1       1.959   2.136 -23.166  0.00  0.00    +0.001 C 
ATOM     16  C   UNL     1       2.209   2.659 -24.281  0.00  0.00    +0.048 C 
ATOM     17  C   UNL     1       1.285   3.201 -24.960  0.00  0.00    +0.200 C 
ATOM     18  O   UNL     1       1.539   3.720 -26.070  0.00  0.00    -0.288 OA
ATOM     19  C   UNL     1       0.112   3.211 -24.508  0.00  0.00    +0.181 C 
ATOM     20  C   UNL     1       0.071   3.793 -25.620  0.00  0.00    +0.065 C 
ATOM     21  O   UNL     1      -1.329   3.621 -24.724  0.00  0.00    -0.473 OA
ATOM     22  C   UNL     1      -0.625   1.628 -21.139  0.00  0.00    +0.091 C 
ATOM     23  C   UNL     1      -2.240   3.228 -23.595  0.00  0.00    +0.168 A 
ENDROOT
BRANCH   1  25
ATOM     24  C   UNL     1      -5.524   3.737 -23.361  0.00  0.00    +0.277 C 
ATOM     25  O   UNL     1      -4.349   3.768 -23.793  0.00  0.00    -0.491 OA
ENDBRANCH   1  25
TORSDOF 1
ENDMDL
MODEL 6
REMARK VINA RESULT:   -10.112      2.015      3.185
REMARK INTER + INTRA:         -10.838
REMARK INTER:                 -10.717
REMARK INTRA:                  -0.122
REMARK UNBOUND:                -0.135
REMARK  Name = COc1ccc2c3c1O[C@@]1(C)C(=O)C=C[C@]4(Br)[C@@H](C2)N(C)CC[C@@]314      ZINC000100393736
REMARK  4 active torsions:
REMARK  status: ('A' for Active; 'I' for Inactive)
REMARK    1  A    between atoms: C_1  and  O_2
REMARK    2  A    between atoms: O_2  and  C_3
REMARK    3  A    between atoms: C_10  and  C_11
REMARK    4  A    between atoms: N_20  and  C_21
REMARK                            x       y       z     vdW  Elec       q    Type
REMARK                         _______ _______ _______ _____ _____    ______ ____
ROOT
ATOM      1  C   UNL     1       1.129   4.135 -23.579  0.00  0.00    +0.162 A 
ATOM      2  C   UNL     1       1.315   4.063 -24.829  0.00  0.00    +0.050 A 
ATOM      3  C   UNL     1       0.349   3.890 -25.607  0.00  0.00    +0.008 A 
ATOM      4  C   UNL     1      -0.811   3.786 -25.147  0.00  0.00    -0.034 A 
ATOM      5  C   UNL     1      -1.021   3.855 -23.901  0.00  0.00    +0.014 A 
ATOM      6  C   UNL     1      -2.181   3.751 -23.445  0.00  0.00    +0.075 C 
ATOM      7  C   UNL     1      -3.456   3.647 -22.811  0.00  0.00    +0.069 C 
ATOM      8  C   UNL     1      -4.565   3.452 -23.664  0.00  0.00    +0.132 C 
ATOM      9  N   UNL     1      -4.320   3.377 -25.049  0.00  0.00    +0.237 N 
ATOM     10  H   UNL     1      -5.095   3.236 -25.698  0.00  0.00    +0.203 HD
ATOM     11  C   UNL     1      -5.249   3.205 -25.871  0.00  0.00    +0.191 C 
ATOM     12  C   UNL     1      -2.964   3.506 -25.474  0.00  0.00    +0.090 C 
ATOM     13  C   UNL     1      -3.144   3.578 -24.223  0.00  0.00    +0.101 C 
ATOM     14 BR   UNL     1      -1.985   3.681 -24.688  0.00  0.00    -0.073 Br
ATOM     15  C   UNL     1      -4.321   3.473 -23.768  0.00  0.00    +0.001 C 
ATOM     16  C   UNL     1      -4.520   3.542 -22.530  0.00  0.00    +0.048 C 
ATOM     17  C   UNL     1      -3.552   3.717 -21.730  0.00  0.00    +0.200 C 
ATOM     18  O   UNL     1      -3.754   3.786 -20.497  0.00  0.00    -0.288 OA
ATOM     19  C   UNL     1      -2.385   3.821 -22.188  0.00  0.00    +0.181 C 
ATOM     20  C   UNL     1      -2.289   3.926 -20.941  0.00  0.00    +0.065 C 
ATOM     21  O   UNL     1      -0.915   4.019 -21.887  0.00  0.00    -0.473 OA
ATOM     22  C   UNL     1      -1.804   3.610 -25.933  0.00  0.00    +0.091 C 
ATOM     23  C   UNL     1      -0.047   4.030 -23.115  0.00  0.00    +0.168 A 
ENDROOT
BRANCH   1  25
ATOM     24  C   UNL     1       3.042   5.062 -23.139  0.00  0.00    +0.277 C 
ATOM     25  O   UNL     1       2.098   4.308 -22.805  0.00  0.00    -0.491 OA
ENDBRANCH   1  25
TORSDOF 1
ENDMDL
MODEL 7
REMARK VINA RESULT:    -9.996      2.856      6.505
REMARK INTER + INTRA:         -10.716
REMARK INTER:                 -10.591
REMARK INTRA:                  -0.125
REMARK UNBOUND:                -0.135
REMARK  Name = COc1ccc2c3c1O[C@@]1(C)C(=O)C=C[C@]4(Br)[C@@H](C2)N(C)CC[C@@]314      ZINC000100393736
REMARK  4 active torsions:
REMARK  status: ('A' for Active; 'I' for Inactive)
REMARK    1  A    between atoms: C_1  and  O_2
REMARK    2  A    between atoms: O_2  and  C_3
REMARK    3  A    between atoms: C_10  and  C_11
REMARK    4  A    between atoms: N_20  and  C_21
REMARK                            x       y       z     vdW  Elec       q    Type
REMARK                         _______ _______ _______ _____ _____    ______ ____
ROOT
ATOM      1  C   UNL     1      -1.217   3.228 -23.395  0.00  0.00    +0.162 A 
ATOM      2  C   UNL     1      -1.299   4.457 -23.690  0.00  0.00    +0.050 A 
ATOM      3  C   UNL     1      -0.274   5.177 -23.712  0.00  0.00    +0.008 A 
ATOM      4  C   UNL     1       0.843   4.679 -23.439  0.00  0.00    -0.034 A 
ATOM      5  C   UNL     1       0.949   3.454 -23.142  0.00  0.00    +0.014 A 
ATOM      6  C   UNL     1       2.066   2.960 -22.870  0.00  0.00    +0.075 C 
ATOM      7  C   UNL     1       3.283   2.288 -22.544  0.00  0.00    +0.069 C 
ATOM      8  C   UNL     1       4.456   3.075 -22.560  0.00  0.00    +0.132 C 
ATOM      9  N   UNL     1       4.326   4.438 -22.893  0.00  0.00    +0.237 N 
ATOM     10  H   UNL     1       5.149   5.039 -22.915  0.00  0.00    +0.203 HD
ATOM     11  C   UNL     1       5.317   5.202 -22.929  0.00  0.00    +0.191 C 
ATOM     12  C   UNL     1       3.011   4.909 -23.187  0.00  0.00    +0.090 C 
ATOM     13  C   UNL     1       3.088   3.680 -22.892  0.00  0.00    +0.101 C 
ATOM     14 BR   UNL     1       1.973   4.182 -23.165  0.00  0.00    -0.073 Br
ATOM     15  C   UNL     1       4.222   3.187 -22.619  0.00  0.00    +0.001 C 
ATOM     16  C   UNL     1       4.318   1.969 -22.324  0.00  0.00    +0.048 C 
ATOM     17  C   UNL     1       3.289   1.229 -22.298  0.00  0.00    +0.200 C 
ATOM     18  O   UNL     1       3.389   0.017 -22.004  0.00  0.00    -0.288 OA
ATOM     19  C   UNL     1       2.166   1.725 -22.571  0.00  0.00    +0.181 C 
ATOM     20  C   UNL     1       1.968   0.511 -22.319  0.00  0.00    +0.065 C 
ATOM     21  O   UNL     1       0.679   1.491 -22.727  0.00  0.00    -0.473 OA
ATOM     22  C   UNL     1       1.894   5.405 -23.459  0.00  0.00    +0.091 C 
ATOM     23  C   UNL     1      -0.084   2.727 -23.119  0.00  0.00    +0.168 A 
ENDROOT
BRANCH   1  25
ATOM     24  C   UNL     1      -3.280   2.918 -22.798  0.00  0.00    +0.277 C 
ATOM     25  O   UNL     1      -2.244   2.513 -23.375  0.00  0.00    -0.491 OA
ENDBRANCH   1  25
TORSDOF 1
ENDMDL
MODEL 8
REMARK VINA RESULT:    -9.905      2.192      3.624
REMARK INTER + INTRA:         -10.620
REMARK INTER:                 -10.502
REMARK INTRA:                  -0.117
REMARK UNBOUND:                -0.135
REMARK  Name = COc1ccc2c3c1O[C@@]1(C)C(=O)C=C[C@]4(Br)[C@@H](C2)N(C)CC[C@@]314      ZINC000100393736
REMARK  4 active torsions:
REMARK  status: ('A' for Active; 'I' for Inactive)
REMARK    1  A    between atoms: C_1  and  O_2
REMARK    2  A    between atoms: O_2  and  C_3
REMARK    3  A    between atoms: C_10  and  C_11
REMARK    4  A    between atoms: N_20  and  C_21
REMARK                            x       y       z     vdW  Elec       q    Type
REMARK                         _______ _______ _______ _____ _____    ______ ____
ROOT
ATOM      1  C   UNL     1       2.635   2.489 -22.347  0.00  0.00    +0.162 A 
ATOM      2  C   UNL     1       3.242   2.774 -23.421  0.00  0.00    +0.050 A 
ATOM      3  C   UNL     1       2.600   3.052 -24.460  0.00  0.00    +0.008 A 
ATOM      4  C   UNL     1       1.348   3.049 -24.439  0.00  0.00    -0.034 A 
ATOM      5  C   UNL     1       0.720   2.767 -23.379  0.00  0.00    +0.014 A 
ATOM      6  C   UNL     1      -0.531   2.764 -23.362  0.00  0.00    +0.075 C 
ATOM      7  C   UNL     1      -1.951   2.729 -23.222  0.00  0.00    +0.069 C 
ATOM      8  C   UNL     1      -2.701   3.038 -24.379  0.00  0.00    +0.132 C 
ATOM      9  N   UNL     1      -1.992   3.351 -25.555  0.00  0.00    +0.237 N 
ATOM     10  H   UNL     1      -2.497   3.580 -26.411  0.00  0.00    +0.203 HD
ATOM     11  C   UNL     1      -2.582   3.636 -26.622  0.00  0.00    +0.191 C 
ATOM     12  C   UNL     1      -0.567   3.328 -25.476  0.00  0.00    +0.090 C 
ATOM     13  C   UNL     1      -1.169   3.042 -24.400  0.00  0.00    +0.101 C 
ATOM     14 BR   UNL     1       0.084   3.047 -24.425  0.00  0.00    -0.073 Br
ATOM     15  C   UNL     1      -2.436   3.041 -24.390  0.00  0.00    +0.001 C 
ATOM     16  C   UNL     1      -3.051   2.760 -23.332  0.00  0.00    +0.048 C 
ATOM     17  C   UNL     1      -2.415   2.477 -22.272  0.00  0.00    +0.200 C 
ATOM     18  O   UNL     1      -3.032   2.197 -21.220  0.00  0.00    -0.288 OA
ATOM     19  C   UNL     1      -1.157   2.479 -22.288  0.00  0.00    +0.181 C 
ATOM     20  C   UNL     1      -1.498   2.169 -21.121  0.00  0.00    +0.065 C 
ATOM     21  O   UNL     1       0.123   2.270 -21.509  0.00  0.00    -0.473 OA
ATOM     22  C   UNL     1       0.685   3.331 -25.495  0.00  0.00    +0.091 C 
ATOM     23  C   UNL     1       1.366   2.486 -22.329  0.00  0.00    +0.168 A 
ENDROOT
BRANCH   1  25
ATOM     24  C   UNL     1       4.483   1.872 -21.392  0.00  0.00    +0.277 C 
ATOM     25  O   UNL     1       3.280   2.212 -21.311  0.00  0.00    -0.491 OA
ENDBRANCH   1  25
TORSDOF 1
ENDMDL
MODEL 9
REMARK VINA RESULT:    -9.306      1.580      2.734
REMARK INTER + INTRA:          -9.985
REMARK INTER:                  -9.850
REMARK INTRA:                  -0.135
REMARK UNBOUND:                -0.135
REMARK  Name = COc1ccc2c3c1O[C@@]1(C)C(=O)C=C[C@]4(Br)[C@@H](C2)N(C)CC[C@@]314      ZINC000100393736
REMARK  4 active torsions:
REMARK  status: ('A' for Active; 'I' for Inactive)
REMARK    1  A    between atoms: C_1  and  O_2
REMARK    2  A    between atoms: O_2  and  C_3
REMARK    3  A    between atoms: C_10  and  C_11
REMARK    4  A    between atoms: N_20  and  C_21
REMARK                            x       y       z     vdW  Elec       q    Type
REMARK                         _______ _______ _______ _____ _____    ______ ____
ROOT
ATOM      1  C   UNL     1       1.994   1.691 -21.249  0.00  0.00    +0.162 A 
ATOM      2  C   UNL     1       1.190   1.327 -20.342  0.00  0.00    +0.050 A 
ATOM      3  C   UNL     1      -0.045   1.474 -20.489  0.00  0.00    +0.008 A 
ATOM      4  C   UNL     1      -0.491   1.985 -21.542  0.00  0.00    -0.034 A 
ATOM      5  C   UNL     1       0.293   2.357 -22.462  0.00  0.00    +0.014 A 
ATOM      6  C   UNL     1      -0.156   2.867 -23.513  0.00  0.00    +0.075 C 
ATOM      7  C   UNL     1      -0.550   3.460 -24.750  0.00  0.00    +0.069 C 
ATOM      8  C   UNL     1      -1.938   3.638 -24.944  0.00  0.00    +0.132 C 
ATOM      9  N   UNL     1      -2.802   3.221 -23.912  0.00  0.00    +0.237 N 
ATOM     10  H   UNL     1      -3.811   3.333 -24.014  0.00  0.00    +0.203 HD
ATOM     11  C   UNL     1      -4.045   3.345 -24.007  0.00  0.00    +0.191 C 
ATOM     12  C   UNL     1      -2.197   2.651 -22.753  0.00  0.00    +0.090 C 
ATOM     13  C   UNL     1      -1.389   3.013 -23.657  0.00  0.00    +0.101 C 
ATOM     14 BR   UNL     1      -0.947   2.501 -22.602  0.00  0.00    -0.073 Br
ATOM     15  C   UNL     1      -1.850   3.529 -24.718  0.00  0.00    +0.001 C 
ATOM     16  C   UNL     1      -1.064   3.895 -25.627  0.00  0.00    +0.048 C 
ATOM     17  C   UNL     1       0.189   3.752 -25.492  0.00  0.00    +0.200 C 
ATOM     18  O   UNL     1       0.968   4.118 -26.400  0.00  0.00    -0.288 OA
ATOM     19  C   UNL     1       0.641   3.239 -24.436  0.00  0.00    +0.181 C 
ATOM     20  C   UNL     1       1.634   3.505 -25.157  0.00  0.00    +0.065 C 
ATOM     21  O   UNL     1       1.864   2.803 -23.658  0.00  0.00    -0.473 OA
ATOM     22  C   UNL     1      -1.749   2.139 -21.701  0.00  0.00    +0.091 C 
ATOM     23  C   UNL     1       1.540   2.209 -22.315  0.00  0.00    +0.168 A 
ENDROOT
BRANCH   1  25
ATOM     24  C   UNL     1       3.716   0.391 -21.018  0.00  0.00    +0.277 C 
ATOM     25  O   UNL     1       3.228   1.542 -21.098  0.00  0.00    -0.491 OA
ENDBRANCH   1  25
TORSDOF 1
ENDMDL
