MODEL 1
REMARK VINA RESULT:   -10.361      0.000      0.000
REMARK INTER + INTRA:         -10.361
REMARK INTER:                 -10.361
REMARK INTRA:                   0.000
REMARK UNBOUND:                 0.000
REMARK  Name = C=C1C(=O)O[C@@H]2[C@@H]1CCC(C)=CCC[C@]1(C)O[C@H]21                   ZINC000253986898
REMARK  2 active torsions:
REMARK  status: ('A' for Active; 'I' for Inactive)
REMARK    1  A    between atoms: C_10  and  C_11
REMARK    2  A    between atoms: C_15  and  C_16
REMARK                            x       y       z     vdW  Elec       q    Type
REMARK                         _______ _______ _______ _____ _____    ______ ____
ROOT
ATOM      1  C   UNL     1       0.241   1.529 -21.014  0.00  0.00    +0.020 C 
ATOM      2  C   UNL     1      -0.339   1.975 -22.073  0.00  0.00    +0.036 C 
ATOM      3  C   UNL     1       0.202   2.112 -23.237  0.00  0.00    +0.335 C 
ATOM      4  O   UNL     1      -0.686   2.584 -24.038  0.00  0.00    -0.455 OA
ATOM      5  C   UNL     1      -1.780   2.743 -23.374  0.00  0.00    +0.216 C 
ATOM      6  C   UNL     1      -2.943   3.166 -23.660  0.00  0.00    +0.192 C 
ATOM      7  O   UNL     1      -4.154   3.572 -23.825  0.00  0.00    -0.361 OA
ATOM      8  C   UNL     1      -3.336   3.580 -24.816  0.00  0.00    +0.097 C 
ATOM      9  C   UNL     1      -2.333   3.486 -25.622  0.00  0.00    +0.044 C 
ATOM     10  C   UNL     1      -4.241   4.013 -25.440  0.00  0.00    +0.041 C 
ATOM     11  C   UNL     1      -5.315   4.121 -24.604  0.00  0.00    +0.030 C 
ATOM     12  C   UNL     1      -5.166   3.724 -23.230  0.00  0.00    -0.028 C 
ATOM     13  C   UNL     1      -3.967   3.256 -22.814  0.00  0.00    -0.077 C 
ATOM     14  C   UNL     1      -4.920   3.322 -21.956  0.00  0.00    +0.039 C 
ATOM     15  C   UNL     1      -3.740   2.877 -21.601  0.00  0.00    +0.031 C 
ATOM     16  C   UNL     1      -2.538   2.430 -21.270  0.00  0.00    +0.016 C 
ATOM     17  O   UNL     1       1.422   1.823 -23.541  0.00  0.00    -0.245 OA
ATOM     18  C   UNL     1      -1.564   2.366 -22.160  0.00  0.00    +0.069 C 
ENDROOT
TORSDOF 0
ENDMDL
MODEL 2
REMARK VINA RESULT:   -10.298      1.221      2.599
REMARK INTER + INTRA:         -10.298
REMARK INTER:                 -10.298
REMARK INTRA:                   0.000
REMARK UNBOUND:                 0.000
REMARK  Name = C=C1C(=O)O[C@@H]2[C@@H]1CCC(C)=CCC[C@]1(C)O[C@H]21                   ZINC000253986898
REMARK  2 active torsions:
REMARK  status: ('A' for Active; 'I' for Inactive)
REMARK    1  A    between atoms: C_10  and  C_11
REMARK    2  A    between atoms: C_15  and  C_16
REMARK                            x       y       z     vdW  Elec       q    Type
REMARK                         _______ _______ _______ _____ _____    ______ ____
ROOT
ATOM      1  C   UNL     1       1.370   2.228 -23.203  0.00  0.00    +0.020 C 
ATOM      2  C   UNL     1       0.194   2.270 -22.682  0.00  0.00    +0.036 C 
ATOM      3  C   UNL     1      -0.131   1.863 -21.502  0.00  0.00    +0.335 C 
ATOM      4  O   UNL     1      -1.389   2.068 -21.340  0.00  0.00    -0.455 OA
ATOM      5  C   UNL     1      -1.850   2.604 -22.418  0.00  0.00    +0.216 C 
ATOM      6  C   UNL     1      -2.994   3.004 -22.798  0.00  0.00    +0.192 C 
ATOM      7  O   UNL     1      -4.098   3.442 -23.294  0.00  0.00    -0.361 OA
ATOM      8  C   UNL     1      -4.081   2.958 -22.105  0.00  0.00    +0.097 C 
ATOM      9  C   UNL     1      -3.789   2.433 -20.963  0.00  0.00    +0.044 C 
ATOM     10  C   UNL     1      -5.237   3.200 -22.087  0.00  0.00    +0.041 C 
ATOM     11  C   UNL     1      -5.567   3.757 -23.290  0.00  0.00    +0.030 C 
ATOM     12  C   UNL     1      -4.537   3.935 -24.278  0.00  0.00    -0.028 C 
ATOM     13  C   UNL     1      -3.277   3.544 -23.981  0.00  0.00    -0.077 C 
ATOM     14  C   UNL     1      -3.492   4.058 -25.138  0.00  0.00    +0.039 C 
ATOM     15  C   UNL     1      -2.288   3.663 -24.803  0.00  0.00    +0.031 C 
ATOM     16  C   UNL     1      -1.082   3.256 -24.440  0.00  0.00    +0.016 C 
ATOM     17  O   UNL     1       0.671   1.340 -20.637  0.00  0.00    -0.245 OA
ATOM     18  C   UNL     1      -0.870   2.728 -23.247  0.00  0.00    +0.069 C 
ENDROOT
TORSDOF 0
ENDMDL
MODEL 3
REMARK VINA RESULT:    -9.766      1.177      4.412
REMARK INTER + INTRA:          -9.766
REMARK INTER:                  -9.766
REMARK INTRA:                   0.000
REMARK UNBOUND:                 0.000
REMARK  Name = C=C1C(=O)O[C@@H]2[C@@H]1CCC(C)=CCC[C@]1(C)O[C@H]21                   ZINC000253986898
REMARK  2 active torsions:
REMARK  status: ('A' for Active; 'I' for Inactive)
REMARK    1  A    between atoms: C_10  and  C_11
REMARK    2  A    between atoms: C_15  and  C_16
REMARK                            x       y       z     vdW  Elec       q    Type
REMARK                         _______ _______ _______ _____ _____    ______ ____
ROOT
ATOM      1  C   UNL     1      -5.208   3.439 -22.506  0.00  0.00    +0.020 C 
ATOM      2  C   UNL     1      -4.089   3.488 -23.141  0.00  0.00    +0.036 C 
ATOM      3  C   UNL     1      -3.889   4.041 -24.290  0.00  0.00    +0.335 C 
ATOM      4  O   UNL     1      -2.651   3.886 -24.598  0.00  0.00    -0.455 OA
ATOM      5  C   UNL     1      -2.079   3.236 -23.642  0.00  0.00    +0.216 C 
ATOM      6  C   UNL     1      -0.897   2.820 -23.428  0.00  0.00    +0.192 C 
ATOM      7  O   UNL     1       0.256   2.351 -23.099  0.00  0.00    -0.361 OA
ATOM      8  C   UNL     1       0.114   2.975 -24.213  0.00  0.00    +0.097 C 
ATOM      9  C   UNL     1      -0.296   3.626 -25.249  0.00  0.00    +0.044 C 
ATOM     10  C   UNL     1       1.265   2.764 -24.373  0.00  0.00    +0.041 C 
ATOM     11  C   UNL     1       1.720   2.074 -23.285  0.00  0.00    +0.030 C 
ATOM     12  C   UNL     1       0.796   1.755 -22.231  0.00  0.00    -0.028 C 
ATOM     13  C   UNL     1      -0.492   2.149 -22.352  0.00  0.00    -0.077 C 
ATOM     14  C   UNL     1      -0.156   1.505 -21.294  0.00  0.00    +0.039 C 
ATOM     15  C   UNL     1      -1.392   1.909 -21.458  0.00  0.00    +0.031 C 
ATOM     16  C   UNL     1      -2.633   2.328 -21.650  0.00  0.00    +0.016 C 
ATOM     17  O   UNL     1      -4.779   4.645 -25.002  0.00  0.00    -0.245 OA
ATOM     18  C   UNL     1      -2.969   2.990 -22.743  0.00  0.00    +0.069 C 
ENDROOT
TORSDOF 0
ENDMDL
MODEL 4
REMARK VINA RESULT:    -9.551      1.334      4.967
REMARK INTER + INTRA:          -9.551
REMARK INTER:                  -9.551
REMARK INTRA:                   0.000
REMARK UNBOUND:                 0.000
REMARK  Name = C=C1C(=O)O[C@@H]2[C@@H]1CCC(C)=CCC[C@]1(C)O[C@H]21                   ZINC000253986898
REMARK  2 active torsions:
REMARK  status: ('A' for Active; 'I' for Inactive)
REMARK    1  A    between atoms: C_10  and  C_11
REMARK    2  A    between atoms: C_15  and  C_16
REMARK                            x       y       z     vdW  Elec       q    Type
REMARK                         _______ _______ _______ _____ _____    ______ ____
ROOT
ATOM      1  C   UNL     1      -5.188   4.116 -24.255  0.00  0.00    +0.020 C 
ATOM      2  C   UNL     1      -4.240   3.572 -23.575  0.00  0.00    +0.036 C 
ATOM      3  C   UNL     1      -4.355   3.020 -22.414  0.00  0.00    +0.335 C 
ATOM      4  O   UNL     1      -3.197   2.592 -22.058  0.00  0.00    -0.455 OA
ATOM      5  C   UNL     1      -2.359   2.876 -22.996  0.00  0.00    +0.216 C 
ATOM      6  C   UNL     1      -1.114   2.690 -23.166  0.00  0.00    +0.192 C 
ATOM      7  O   UNL     1       0.135   2.562 -23.453  0.00  0.00    -0.361 OA
ATOM      8  C   UNL     1      -0.315   2.106 -22.340  0.00  0.00    +0.097 C 
ATOM      9  C   UNL     1      -1.013   1.748 -21.315  0.00  0.00    +0.044 C 
ATOM     10  C   UNL     1       0.797   1.763 -22.136  0.00  0.00    +0.041 C 
ATOM     11  C   UNL     1       1.554   2.133 -23.211  0.00  0.00    +0.030 C 
ATOM     12  C   UNL     1       0.917   2.815 -24.305  0.00  0.00    -0.028 C 
ATOM     13  C   UNL     1      -0.410   3.067 -24.232  0.00  0.00    -0.077 C 
ATOM     14  C   UNL     1       0.219   3.452 -25.282  0.00  0.00    +0.039 C 
ATOM     15  C   UNL     1      -1.067   3.673 -25.163  0.00  0.00    +0.031 C 
ATOM     16  C   UNL     1      -2.366   3.882 -25.017  0.00  0.00    +0.016 C 
ATOM     17  O   UNL     1      -5.446   2.918 -21.732  0.00  0.00    -0.245 OA
ATOM     18  C   UNL     1      -3.005   3.482 -23.933  0.00  0.00    +0.069 C 
ENDROOT
TORSDOF 0
ENDMDL
MODEL 5
REMARK VINA RESULT:    -9.042      1.393      2.245
REMARK INTER + INTRA:          -9.042
REMARK INTER:                  -9.042
REMARK INTRA:                   0.000
REMARK UNBOUND:                 0.000
REMARK  Name = C=C1C(=O)O[C@@H]2[C@@H]1CCC(C)=CCC[C@]1(C)O[C@H]21                   ZINC000253986898
REMARK  2 active torsions:
REMARK  status: ('A' for Active; 'I' for Inactive)
REMARK    1  A    between atoms: C_10  and  C_11
REMARK    2  A    between atoms: C_15  and  C_16
REMARK                            x       y       z     vdW  Elec       q    Type
REMARK                         _______ _______ _______ _____ _____    ______ ____
ROOT
ATOM      1  C   UNL     1       2.780   0.943 -21.831  0.00  0.00    +0.020 C 
ATOM      2  C   UNL     1       1.998   1.542 -22.659  0.00  0.00    +0.036 C 
ATOM      3  C   UNL     1       2.323   1.989 -23.825  0.00  0.00    +0.335 C 
ATOM      4  O   UNL     1       1.280   2.523 -24.354  0.00  0.00    -0.455 OA
ATOM      5  C   UNL     1       0.304   2.409 -23.518  0.00  0.00    +0.216 C 
ATOM      6  C   UNL     1      -0.919   2.751 -23.522  0.00  0.00    +0.192 C 
ATOM      7  O   UNL     1      -2.167   3.046 -23.408  0.00  0.00    -0.361 OA
ATOM      8  C   UNL     1      -1.531   3.362 -24.478  0.00  0.00    +0.097 C 
ATOM      9  C   UNL     1      -0.674   3.559 -25.423  0.00  0.00    +0.044 C 
ATOM     10  C   UNL     1      -2.558   3.817 -24.845  0.00  0.00    +0.041 C 
ATOM     11  C   UNL     1      -3.481   3.619 -23.857  0.00  0.00    +0.030 C 
ATOM     12  C   UNL     1      -3.073   2.950 -22.651  0.00  0.00    -0.028 C 
ATOM     13  C   UNL     1      -1.789   2.540 -22.537  0.00  0.00    -0.077 C 
ATOM     14  C   UNL     1      -2.585   2.310 -21.557  0.00  0.00    +0.039 C 
ATOM     15  C   UNL     1      -1.332   1.932 -21.494  0.00  0.00    +0.031 C 
ATOM     16  C   UNL     1      -0.062   1.561 -21.457  0.00  0.00    +0.016 C 
ATOM     17  O   UNL     1       3.492   1.912 -24.364  0.00  0.00    -0.245 OA
ATOM     18  C   UNL     1       0.750   1.802 -22.471  0.00  0.00    +0.069 C 
ENDROOT
TORSDOF 0
ENDMDL
MODEL 6
REMARK VINA RESULT:    -8.826      2.278      4.054
REMARK INTER + INTRA:          -8.826
REMARK INTER:                  -8.826
REMARK INTRA:                   0.000
REMARK UNBOUND:                 0.000
REMARK  Name = C=C1C(=O)O[C@@H]2[C@@H]1CCC(C)=CCC[C@]1(C)O[C@H]21                   ZINC000253986898
REMARK  2 active torsions:
REMARK  status: ('A' for Active; 'I' for Inactive)
REMARK    1  A    between atoms: C_10  and  C_11
REMARK    2  A    between atoms: C_15  and  C_16
REMARK                            x       y       z     vdW  Elec       q    Type
REMARK                         _______ _______ _______ _____ _____    ______ ____
ROOT
ATOM      1  C   UNL     1       4.314   2.921 -23.639  0.00  0.00    +0.020 C 
ATOM      2  C   UNL     1       3.205   2.493 -23.146  0.00  0.00    +0.036 C 
ATOM      3  C   UNL     1       3.012   1.343 -22.594  0.00  0.00    +0.335 C 
ATOM      4  O   UNL     1       1.782   1.278 -22.225  0.00  0.00    -0.455 OA
ATOM      5  C   UNL     1       1.208   2.388 -22.547  0.00  0.00    +0.216 C 
ATOM      6  C   UNL     1       0.033   2.853 -22.423  0.00  0.00    +0.192 C 
ATOM      7  O   UNL     1      -1.115   3.432 -22.356  0.00  0.00    -0.361 OA
ATOM      8  C   UNL     1      -0.969   2.247 -21.883  0.00  0.00    +0.097 C 
ATOM      9  C   UNL     1      -0.556   1.088 -21.495  0.00  0.00    +0.044 C 
ATOM     10  C   UNL     1      -2.113   2.319 -21.597  0.00  0.00    +0.041 C 
ATOM     11  C   UNL     1      -2.570   3.541 -22.000  0.00  0.00    +0.030 C 
ATOM     12  C   UNL     1      -1.656   4.445 -22.645  0.00  0.00    -0.028 C 
ATOM     13  C   UNL     1      -0.375   4.053 -22.830  0.00  0.00    -0.077 C 
ATOM     14  C   UNL     1      -0.714   5.220 -23.243  0.00  0.00    +0.039 C 
ATOM     15  C   UNL     1       0.515   4.795 -23.399  0.00  0.00    +0.031 C 
ATOM     16  C   UNL     1       1.750   4.340 -23.544  0.00  0.00    +0.016 C 
ATOM     17  O   UNL     1       3.900   0.421 -22.440  0.00  0.00    -0.245 OA
ATOM     18  C   UNL     1       2.089   3.137 -23.116  0.00  0.00    +0.069 C 
ENDROOT
TORSDOF 0
ENDMDL
MODEL 7
REMARK VINA RESULT:    -8.326      2.236      5.497
REMARK INTER + INTRA:          -8.326
REMARK INTER:                  -8.326
REMARK INTRA:                   0.000
REMARK UNBOUND:                 0.000
REMARK  Name = C=C1C(=O)O[C@@H]2[C@@H]1CCC(C)=CCC[C@]1(C)O[C@H]21                   ZINC000253986898
REMARK  2 active torsions:
REMARK  status: ('A' for Active; 'I' for Inactive)
REMARK    1  A    between atoms: C_10  and  C_11
REMARK    2  A    between atoms: C_15  and  C_16
REMARK                            x       y       z     vdW  Elec       q    Type
REMARK                         _______ _______ _______ _____ _____    ______ ____
ROOT
ATOM      1  C   UNL     1      -2.926   2.616 -22.298  0.00  0.00    +0.020 C 
ATOM      2  C   UNL     1      -1.823   3.105 -22.745  0.00  0.00    +0.036 C 
ATOM      3  C   UNL     1      -1.706   4.073 -23.590  0.00  0.00    +0.335 C 
ATOM      4  O   UNL     1      -0.453   4.278 -23.793  0.00  0.00    -0.455 OA
ATOM      5  C   UNL     1       0.211   3.438 -23.075  0.00  0.00    +0.216 C 
ATOM      6  C   UNL     1       1.446   3.202 -22.892  0.00  0.00    +0.192 C 
ATOM      7  O   UNL     1       2.661   2.868 -22.626  0.00  0.00    -0.361 OA
ATOM      8  C   UNL     1       2.427   3.823 -23.453  0.00  0.00    +0.097 C 
ATOM      9  C   UNL     1       1.923   4.724 -24.227  0.00  0.00    +0.044 C 
ATOM     10  C   UNL     1       3.602   3.906 -23.547  0.00  0.00    +0.041 C 
ATOM     11  C   UNL     1       4.156   2.959 -22.734  0.00  0.00    +0.030 C 
ATOM     12  C   UNL     1       3.286   2.103 -21.972  0.00  0.00    -0.028 C 
ATOM     13  C   UNL     1       1.948   2.267 -22.089  0.00  0.00    -0.077 C 
ATOM     14  C   UNL     1       2.378   1.350 -21.299  0.00  0.00    +0.039 C 
ATOM     15  C   UNL     1       1.091   1.547 -21.446  0.00  0.00    +0.031 C 
ATOM     16  C   UNL     1      -0.204   1.768 -21.613  0.00  0.00    +0.016 C 
ATOM     17  O   UNL     1      -2.680   4.721 -24.134  0.00  0.00    -0.245 OA
ATOM     18  C   UNL     1      -0.636   2.714 -22.427  0.00  0.00    +0.069 C 
ENDROOT
TORSDOF 0
ENDMDL
MODEL 8
REMARK VINA RESULT:    -8.319      1.803      5.783
REMARK INTER + INTRA:          -8.319
REMARK INTER:                  -8.319
REMARK INTRA:                   0.000
REMARK UNBOUND:                 0.000
REMARK  Name = C=C1C(=O)O[C@@H]2[C@@H]1CCC(C)=CCC[C@]1(C)O[C@H]21                   ZINC000253986898
REMARK  2 active torsions:
REMARK  status: ('A' for Active; 'I' for Inactive)
REMARK    1  A    between atoms: C_10  and  C_11
REMARK    2  A    between atoms: C_15  and  C_16
REMARK                            x       y       z     vdW  Elec       q    Type
REMARK                         _______ _______ _______ _____ _____    ______ ____
ROOT
ATOM      1  C   UNL     1      -2.438   3.754 -25.537  0.00  0.00    +0.020 C 
ATOM      2  C   UNL     1      -1.850   3.237 -24.516  0.00  0.00    +0.036 C 
ATOM      3  C   UNL     1      -2.428   2.768 -23.462  0.00  0.00    +0.335 C 
ATOM      4  O   UNL     1      -1.516   2.339 -22.663  0.00  0.00    -0.455 OA
ATOM      5  C   UNL     1      -0.370   2.540 -23.219  0.00  0.00    +0.216 C 
ATOM      6  C   UNL     1       0.835   2.315 -22.886  0.00  0.00    +0.192 C 
ATOM      7  O   UNL     1       2.091   2.140 -22.662  0.00  0.00    -0.361 OA
ATOM      8  C   UNL     1       1.228   1.771 -21.785  0.00  0.00    +0.097 C 
ATOM      9  C   UNL     1       0.174   1.499 -21.091  0.00  0.00    +0.044 C 
ATOM     10  C   UNL     1       2.159   1.418 -21.150  0.00  0.00    +0.041 C 
ATOM     11  C   UNL     1       3.287   1.697 -21.868  0.00  0.00    +0.030 C 
ATOM     12  C   UNL     1       3.151   2.317 -23.158  0.00  0.00    -0.028 C 
ATOM     13  C   UNL     1       1.911   2.603 -23.616  0.00  0.00    -0.077 C 
ATOM     14  C   UNL     1       2.912   2.902 -24.361  0.00  0.00    +0.039 C 
ATOM     15  C   UNL     1       1.691   3.158 -24.760  0.00  0.00    +0.031 C 
ATOM     16  C   UNL     1       0.446   3.406 -25.139  0.00  0.00    +0.016 C 
ATOM     17  O   UNL     1      -3.699   2.737 -23.249  0.00  0.00    -0.245 OA
ATOM     18  C   UNL     1      -0.578   3.095 -24.364  0.00  0.00    +0.069 C 
ENDROOT
TORSDOF 0
ENDMDL
MODEL 9
REMARK VINA RESULT:    -8.065      3.573      7.100
REMARK INTER + INTRA:          -8.065
REMARK INTER:                  -8.065
REMARK INTRA:                   0.000
REMARK UNBOUND:                 0.000
REMARK  Name = C=C1C(=O)O[C@@H]2[C@@H]1CCC(C)=CCC[C@]1(C)O[C@H]21                   ZINC000253986898
REMARK  2 active torsions:
REMARK  status: ('A' for Active; 'I' for Inactive)
REMARK    1  A    between atoms: C_10  and  C_11
REMARK    2  A    between atoms: C_15  and  C_16
REMARK                            x       y       z     vdW  Elec       q    Type
REMARK                         _______ _______ _______ _____ _____    ______ ____
ROOT
ATOM      1  C   UNL     1      -0.561   4.493 -23.821  0.00  0.00    +0.020 C 
ATOM      2  C   UNL     1       0.280   3.570 -23.509  0.00  0.00    +0.036 C 
ATOM      3  C   UNL     1       0.004   2.325 -23.310  0.00  0.00    +0.335 C 
ATOM      4  O   UNL     1       1.097   1.714 -23.020  0.00  0.00    -0.455 OA
ATOM      5  C   UNL     1       2.055   2.577 -23.038  0.00  0.00    +0.216 C 
ATOM      6  C   UNL     1       3.307   2.525 -22.832  0.00  0.00    +0.192 C 
ATOM      7  O   UNL     1       4.579   2.599 -22.647  0.00  0.00    -0.361 OA
ATOM      8  C   UNL     1       3.980   1.470 -22.521  0.00  0.00    +0.097 C 
ATOM      9  C   UNL     1       3.149   0.485 -22.460  0.00  0.00    +0.044 C 
ATOM     10  C   UNL     1       5.049   1.035 -22.269  0.00  0.00    +0.041 C 
ATOM     11  C   UNL     1       5.946   2.063 -22.328  0.00  0.00    +0.030 C 
ATOM     12  C   UNL     1       5.470   3.379 -22.659  0.00  0.00    -0.028 C 
ATOM     13  C   UNL     1       4.150   3.553 -22.900  0.00  0.00    -0.077 C 
ATOM     14  C   UNL     1       4.918   4.579 -22.979  0.00  0.00    +0.039 C 
ATOM     15  C   UNL     1       3.632   4.696 -23.203  0.00  0.00    +0.031 C 
ATOM     16  C   UNL     1       2.330   4.785 -23.425  0.00  0.00    +0.016 C 
ATOM     17  O   UNL     1      -1.167   1.789 -23.390  0.00  0.00    -0.245 OA
ATOM     18  C   UNL     1       1.548   3.724 -23.340  0.00  0.00    +0.069 C 
ENDROOT
TORSDOF 0
ENDMDL
