MODEL 1
REMARK VINA RESULT:    -8.950      0.000      0.000
REMARK INTER + INTRA:         -14.041
REMARK INTER:                 -13.085
REMARK INTRA:                  -0.956
REMARK UNBOUND:                -0.643
REMARK  Name = ZINC000004492887
REMARK  12 active torsions:
REMARK  status: ('A' for Active; 'I' for Inactive)
REMARK    1  A    between atoms: C_1  and  C_2
REMARK    2  A    between atoms: C_2  and  C_17
REMARK    3  A    between atoms: C_3  and  C_4
REMARK    4  A    between atoms: C_4  and  O_5
REMARK    5  A    between atoms: O_5  and  C_6
REMARK    6  A    between atoms: C_17  and  C_18
REMARK    7  A    between atoms: C_18  and  C_19
REMARK    8  A    between atoms: C_19  and  O_20
REMARK    9  A    between atoms: C_19  and  C_21
REMARK   10  A    between atoms: C_21  and  C_22
REMARK   11  A    between atoms: C_21  and  C_23
REMARK   12  A    between atoms: C_21  and  O_24
REMARK                            x       y       z     vdW  Elec       q    Type
REMARK                         _______ _______ _______ _____ _____    ______ ____
ROOT
ATOM      1  C   UNL     1       0.165   4.886 -23.589  0.00  0.00    +0.256 C 
ENDROOT
BRANCH   1   4
ATOM      2  C   UNL     1       1.130   3.392 -25.485  0.00  0.00    +0.039 C 
ATOM      3  C   UNL     1       1.534   3.230 -24.260  0.00  0.00    -0.073 C 
ATOM      4  C   UNL     1       1.051   3.977 -23.312  0.00  0.00    +0.012 C 
BRANCH   3   5
ATOM      5  C   UNL     1       2.421   2.320 -23.983  0.00  0.00    +0.033 C 
BRANCH   5   6
ATOM      6  C   UNL     1       2.566   1.904 -22.761  0.00  0.00    +0.038 C 
BRANCH   6   7
ATOM      7  C   UNL     1       3.076   0.731 -22.530  0.00  0.00    +0.146 C 
BRANCH   7   8
ATOM      8  C   UNL     1       4.118   0.615 -21.761  0.00  0.00    +0.086 C 
ATOM      9  C   UNL     1       5.272   1.064 -22.157  0.00  0.00    +0.043 C 
ATOM     10  C   UNL     1       4.655   0.222 -20.643  0.00  0.00    +0.043 C 
BRANCH   8  11
ATOM     11  O   UNL     1       3.387   0.029 -20.859  0.00  0.00    -0.387 OA
ATOM     12  H   UNL     1       3.237   0.639 -20.120  0.00  0.00    +0.210 HD
ENDBRANCH   8  11
ENDBRANCH   7   8
BRANCH   7  13
ATOM     13  O   UNL     1       2.546  -0.327 -23.068  0.00  0.00    -0.389 OA
ATOM     14  H   UNL     1       2.873  -1.120 -22.615  0.00  0.00    +0.210 HD
ENDBRANCH   7  13
ENDBRANCH   6   7
ENDBRANCH   5   6
ENDBRANCH   3   5
ENDBRANCH   1   4
BRANCH   1  15
ATOM     15  O   UNL     1      -0.886   5.021 -22.835  0.00  0.00    -0.487 OA
BRANCH  15  16
ATOM     16  C   UNL     1      -2.016   4.487 -23.193  0.00  0.00    +0.135 A 
ATOM     17  C   UNL     1      -2.376   4.506 -24.441  0.00  0.00    +0.116 A 
ATOM     18  C   UNL     1      -3.507   3.972 -24.800  0.00  0.00    +0.253 A 
ATOM     19  N   UNL     1      -4.276   3.420 -23.909  0.00  0.00    -0.322 N 
ATOM     20  H   UNL     1      -5.132   3.016 -24.181  0.00  0.00    +0.169 HD
ATOM     21  C   UNL     1      -3.916   3.401 -22.661  0.00  0.00    +0.053 A 
ATOM     22  C   UNL     1      -4.685   2.849 -21.770  0.00  0.00    +0.026 A 
ATOM     23  C   UNL     1      -4.324   2.830 -20.521  0.00  0.00    +0.002 A 
ATOM     24  C   UNL     1      -3.194   3.363 -20.163  0.00  0.00    +0.001 A 
ATOM     25  C   UNL     1      -2.425   3.916 -21.053  0.00  0.00    +0.013 A 
ATOM     26  O   UNL     1      -3.867   3.991 -26.049  0.00  0.00    -0.268 OA
ATOM     27  C   UNL     1      -2.786   3.935 -22.303  0.00  0.00    +0.040 A 
ENDBRANCH  15  16
ENDBRANCH   1  15
TORSDOF 9
ENDMDL
MODEL 2
REMARK VINA RESULT:    -8.790      1.531      2.192
REMARK INTER + INTRA:         -13.801
REMARK INTER:                 -13.013
REMARK INTRA:                  -0.789
REMARK UNBOUND:                -0.643
REMARK  Name = ZINC000004492887
REMARK  12 active torsions:
REMARK  status: ('A' for Active; 'I' for Inactive)
REMARK    1  A    between atoms: C_1  and  C_2
REMARK    2  A    between atoms: C_2  and  C_17
REMARK    3  A    between atoms: C_3  and  C_4
REMARK    4  A    between atoms: C_4  and  O_5
REMARK    5  A    between atoms: O_5  and  C_6
REMARK    6  A    between atoms: C_17  and  C_18
REMARK    7  A    between atoms: C_18  and  C_19
REMARK    8  A    between atoms: C_19  and  O_20
REMARK    9  A    between atoms: C_19  and  C_21
REMARK   10  A    between atoms: C_21  and  C_22
REMARK   11  A    between atoms: C_21  and  C_23
REMARK   12  A    between atoms: C_21  and  O_24
REMARK                            x       y       z     vdW  Elec       q    Type
REMARK                         _______ _______ _______ _____ _____    ______ ____
ROOT
ATOM      1  C   UNL     1       0.657   2.844 -23.607  0.00  0.00    +0.256 C 
ENDROOT
BRANCH   1   4
ATOM      2  C   UNL     1       0.362   1.155 -21.652  0.00  0.00    +0.039 C 
ATOM      3  C   UNL     1       1.503   1.751 -21.830  0.00  0.00    -0.073 C 
ATOM      4  C   UNL     1       1.651   2.595 -22.807  0.00  0.00    +0.012 C 
BRANCH   3   5
ATOM      5  C   UNL     1       2.498   1.502 -21.030  0.00  0.00    +0.033 C 
BRANCH   5   6
ATOM      6  C   UNL     1       3.562   0.907 -21.480  0.00  0.00    +0.038 C 
BRANCH   6   7
ATOM      7  C   UNL     1       4.728   1.199 -20.985  0.00  0.00    +0.146 C 
BRANCH   7   8
ATOM      8  C   UNL     1       5.378   2.237 -21.421  0.00  0.00    +0.086 C 
ATOM      9  C   UNL     1       5.397   2.507 -22.692  0.00  0.00    +0.043 C 
ATOM     10  C   UNL     1       6.117   3.282 -21.188  0.00  0.00    +0.043 C 
BRANCH   8  11
ATOM     11  O   UNL     1       5.731   2.527 -20.203  0.00  0.00    -0.387 OA
ATOM     12  H   UNL     1       6.295   3.316 -20.209  0.00  0.00    +0.210 HD
ENDBRANCH   8  11
ENDBRANCH   7   8
BRANCH   7  13
ATOM     13  O   UNL     1       5.245   0.452 -20.055  0.00  0.00    -0.389 OA
ATOM     14  H   UNL     1       6.164   0.242 -20.283  0.00  0.00    +0.210 HD
ENDBRANCH   7  13
ENDBRANCH   6   7
ENDBRANCH   5   6
ENDBRANCH   3   5
ENDBRANCH   1   4
BRANCH   1  15
ATOM     15  O   UNL     1      -0.242   3.721 -23.273  0.00  0.00    -0.487 OA
BRANCH  15  16
ATOM     16  C   UNL     1      -1.445   3.636 -23.759  0.00  0.00    +0.135 A 
ATOM     17  C   UNL     1      -1.623   3.582 -25.045  0.00  0.00    +0.116 A 
ATOM     18  C   UNL     1      -2.826   3.497 -25.533  0.00  0.00    +0.253 A 
ATOM     19  N   UNL     1      -3.850   3.467 -24.732  0.00  0.00    -0.322 N 
ATOM     20  H   UNL     1      -4.761   3.403 -25.101  0.00  0.00    +0.169 HD
ATOM     21  C   UNL     1      -3.672   3.522 -23.446  0.00  0.00    +0.053 A 
ATOM     22  C   UNL     1      -4.696   3.492 -22.645  0.00  0.00    +0.026 A 
ATOM     23  C   UNL     1      -4.518   3.547 -21.359  0.00  0.00    +0.002 A 
ATOM     24  C   UNL     1      -3.315   3.631 -20.873  0.00  0.00    +0.001 A 
ATOM     25  C   UNL     1      -2.291   3.661 -21.673  0.00  0.00    +0.013 A 
ATOM     26  O   UNL     1      -3.004   3.442 -26.819  0.00  0.00    -0.268 OA
ATOM     27  C   UNL     1      -2.469   3.606 -22.960  0.00  0.00    +0.040 A 
ENDBRANCH  15  16
ENDBRANCH   1  15
TORSDOF 9
ENDMDL
MODEL 3
REMARK VINA RESULT:    -8.744      1.060      1.194
REMARK INTER + INTRA:         -13.732
REMARK INTER:                 -12.828
REMARK INTRA:                  -0.904
REMARK UNBOUND:                -0.643
REMARK  Name = ZINC000004492887
REMARK  12 active torsions:
REMARK  status: ('A' for Active; 'I' for Inactive)
REMARK    1  A    between atoms: C_1  and  C_2
REMARK    2  A    between atoms: C_2  and  C_17
REMARK    3  A    between atoms: C_3  and  C_4
REMARK    4  A    between atoms: C_4  and  O_5
REMARK    5  A    between atoms: O_5  and  C_6
REMARK    6  A    between atoms: C_17  and  C_18
REMARK    7  A    between atoms: C_18  and  C_19
REMARK    8  A    between atoms: C_19  and  O_20
REMARK    9  A    between atoms: C_19  and  C_21
REMARK   10  A    between atoms: C_21  and  C_22
REMARK   11  A    between atoms: C_21  and  C_23
REMARK   12  A    between atoms: C_21  and  O_24
REMARK                            x       y       z     vdW  Elec       q    Type
REMARK                         _______ _______ _______ _____ _____    ______ ____
ROOT
ATOM      1  C   UNL     1      -0.117   4.508 -23.363  0.00  0.00    +0.256 C 
ENDROOT
BRANCH   1   4
ATOM      2  C   UNL     1       0.849   4.146 -25.749  0.00  0.00    +0.039 C 
ATOM      3  C   UNL     1       1.357   3.506 -24.738  0.00  0.00    -0.073 C 
ATOM      4  C   UNL     1       0.874   3.687 -23.545  0.00  0.00    +0.012 C 
BRANCH   3   5
ATOM      5  C   UNL     1       2.349   2.684 -24.921  0.00  0.00    +0.033 C 
BRANCH   5   6
ATOM      6  C   UNL     1       3.236   2.519 -23.986  0.00  0.00    +0.038 C 
BRANCH   6   7
ATOM      7  C   UNL     1       3.681   1.328 -23.716  0.00  0.00    +0.146 C 
BRANCH   7   8
ATOM      8  C   UNL     1       3.990   1.011 -22.493  0.00  0.00    +0.086 C 
ATOM      9  C   UNL     1       3.091   1.077 -21.557  0.00  0.00    +0.043 C 
ATOM     10  C   UNL     1       4.868   0.606 -21.623  0.00  0.00    +0.043 C 
BRANCH   8  11
ATOM     11  O   UNL     1       5.208   0.751 -22.869  0.00  0.00    -0.387 OA
ATOM     12  H   UNL     1       5.659   0.244 -22.176  0.00  0.00    +0.210 HD
ENDBRANCH   8  11
ENDBRANCH   7   8
BRANCH   7  13
ATOM     13  O   UNL     1       3.816   0.453 -24.668  0.00  0.00    -0.389 OA
ATOM     14  H   UNL     1       3.928  -0.431 -24.282  0.00  0.00    +0.210 HD
ENDBRANCH   7  13
ENDBRANCH   6   7
ENDBRANCH   5   6
ENDBRANCH   3   5
ENDBRANCH   1   4
BRANCH   1  15
ATOM     15  O   UNL     1      -1.111   4.168 -22.596  0.00  0.00    -0.487 OA
BRANCH  15  16
ATOM     16  C   UNL     1      -2.313   4.091 -23.085  0.00  0.00    +0.135 A 
ATOM     17  C   UNL     1      -2.557   4.537 -24.281  0.00  0.00    +0.116 A 
ATOM     18  C   UNL     1      -3.760   4.460 -24.771  0.00  0.00    +0.253 A 
ATOM     19  N   UNL     1      -4.717   3.938 -24.063  0.00  0.00    -0.322 N 
ATOM     20  H   UNL     1      -5.627   3.880 -24.434  0.00  0.00    +0.169 HD
ATOM     21  C   UNL     1      -4.473   3.492 -22.867  0.00  0.00    +0.053 A 
ATOM     22  C   UNL     1      -5.430   2.970 -22.159  0.00  0.00    +0.026 A 
ATOM     23  C   UNL     1      -5.186   2.524 -20.963  0.00  0.00    +0.002 A 
ATOM     24  C   UNL     1      -3.984   2.601 -20.474  0.00  0.00    +0.001 A 
ATOM     25  C   UNL     1      -3.026   3.123 -21.181  0.00  0.00    +0.013 A 
ATOM     26  O   UNL     1      -4.004   4.906 -25.967  0.00  0.00    -0.268 OA
ATOM     27  C   UNL     1      -3.271   3.569 -22.378  0.00  0.00    +0.040 A 
ENDBRANCH  15  16
ENDBRANCH   1  15
TORSDOF 9
ENDMDL
MODEL 4
REMARK VINA RESULT:    -8.505      2.010      3.350
REMARK INTER + INTRA:         -13.374
REMARK INTER:                 -12.512
REMARK INTRA:                  -0.862
REMARK UNBOUND:                -0.643
REMARK  Name = ZINC000004492887
REMARK  12 active torsions:
REMARK  status: ('A' for Active; 'I' for Inactive)
REMARK    1  A    between atoms: C_1  and  C_2
REMARK    2  A    between atoms: C_2  and  C_17
REMARK    3  A    between atoms: C_3  and  C_4
REMARK    4  A    between atoms: C_4  and  O_5
REMARK    5  A    between atoms: O_5  and  C_6
REMARK    6  A    between atoms: C_17  and  C_18
REMARK    7  A    between atoms: C_18  and  C_19
REMARK    8  A    between atoms: C_19  and  O_20
REMARK    9  A    between atoms: C_19  and  C_21
REMARK   10  A    between atoms: C_21  and  C_22
REMARK   11  A    between atoms: C_21  and  C_23
REMARK   12  A    between atoms: C_21  and  O_24
REMARK                            x       y       z     vdW  Elec       q    Type
REMARK                         _______ _______ _______ _____ _____    ______ ____
ROOT
ATOM      1  C   UNL     1       0.354   2.725 -23.016  0.00  0.00    +0.256 C 
ENDROOT
BRANCH   1   4
ATOM      2  C   UNL     1       1.313   1.519 -20.922  0.00  0.00    +0.039 C 
ATOM      3  C   UNL     1       1.913   1.405 -22.070  0.00  0.00    -0.073 C 
ATOM      4  C   UNL     1       1.434   2.008 -23.117  0.00  0.00    +0.012 C 
BRANCH   3   5
ATOM      5  C   UNL     1       2.993   0.688 -22.170  0.00  0.00    +0.033 C 
BRANCH   5   6
ATOM      6  C   UNL     1       3.923   1.026 -23.013  0.00  0.00    +0.038 C 
BRANCH   6   7
ATOM      7  C   UNL     1       5.106   1.347 -22.580  0.00  0.00    +0.146 C 
BRANCH   7   8
ATOM      8  C   UNL     1       5.441   2.598 -22.469  0.00  0.00    +0.086 C 
ATOM      9  C   UNL     1       5.047   3.458 -23.361  0.00  0.00    +0.043 C 
ATOM     10  C   UNL     1       6.056   3.547 -21.826  0.00  0.00    +0.043 C 
BRANCH   8  11
ATOM     11  O   UNL     1       6.090   2.328 -21.375  0.00  0.00    -0.387 OA
ATOM     12  H   UNL     1       5.515   2.492 -20.611  0.00  0.00    +0.210 HD
ENDBRANCH   8  11
ENDBRANCH   7   8
BRANCH   7  13
ATOM     13  O   UNL     1       5.955   0.416 -22.258  0.00  0.00    -0.389 OA
ATOM     14  H   UNL     1       6.785   0.554 -22.742  0.00  0.00    +0.210 HD
ENDBRANCH   7  13
ENDBRANCH   6   7
ENDBRANCH   5   6
ENDBRANCH   3   5
ENDBRANCH   1   4
BRANCH   1  15
ATOM     15  O   UNL     1      -0.785   2.245 -23.418  0.00  0.00    -0.487 OA
BRANCH  15  16
ATOM     16  C   UNL     1      -1.895   2.702 -22.919  0.00  0.00    +0.135 A 
ATOM     17  C   UNL     1      -2.025   2.829 -21.632  0.00  0.00    +0.116 A 
ATOM     18  C   UNL     1      -3.136   3.286 -21.133  0.00  0.00    +0.253 A 
ATOM     19  N   UNL     1      -4.116   3.615 -21.921  0.00  0.00    -0.322 N 
ATOM     20  H   UNL     1      -4.957   3.960 -21.543  0.00  0.00    +0.169 HD
ATOM     21  C   UNL     1      -3.986   3.487 -23.208  0.00  0.00    +0.053 A 
ATOM     22  C   UNL     1      -4.966   3.816 -23.997  0.00  0.00    +0.026 A 
ATOM     23  C   UNL     1      -4.836   3.688 -25.283  0.00  0.00    +0.002 A 
ATOM     24  C   UNL     1      -3.726   3.232 -25.782  0.00  0.00    +0.001 A 
ATOM     25  C   UNL     1      -2.746   2.903 -24.995  0.00  0.00    +0.013 A 
ATOM     26  O   UNL     1      -3.266   3.413 -19.846  0.00  0.00    -0.268 OA
ATOM     27  C   UNL     1      -2.876   3.031 -23.707  0.00  0.00    +0.040 A 
ENDBRANCH  15  16
ENDBRANCH   1  15
TORSDOF 9
ENDMDL
MODEL 5
REMARK VINA RESULT:    -8.304      1.990      2.346
REMARK INTER + INTRA:         -13.073
REMARK INTER:                 -12.344
REMARK INTRA:                  -0.730
REMARK UNBOUND:                -0.643
REMARK  Name = ZINC000004492887
REMARK  12 active torsions:
REMARK  status: ('A' for Active; 'I' for Inactive)
REMARK    1  A    between atoms: C_1  and  C_2
REMARK    2  A    between atoms: C_2  and  C_17
REMARK    3  A    between atoms: C_3  and  C_4
REMARK    4  A    between atoms: C_4  and  O_5
REMARK    5  A    between atoms: O_5  and  C_6
REMARK    6  A    between atoms: C_17  and  C_18
REMARK    7  A    between atoms: C_18  and  C_19
REMARK    8  A    between atoms: C_19  and  O_20
REMARK    9  A    between atoms: C_19  and  C_21
REMARK   10  A    between atoms: C_21  and  C_22
REMARK   11  A    between atoms: C_21  and  C_23
REMARK   12  A    between atoms: C_21  and  O_24
REMARK                            x       y       z     vdW  Elec       q    Type
REMARK                         _______ _______ _______ _____ _____    ______ ____
ROOT
ATOM      1  C   UNL     1      -0.156   3.849 -24.018  0.00  0.00    +0.256 C 
ENDROOT
BRANCH   1   4
ATOM      2  C   UNL     1       0.726   1.868 -22.584  0.00  0.00    +0.039 C 
ATOM      3  C   UNL     1       1.520   2.849 -22.896  0.00  0.00    -0.073 C 
ATOM      4  C   UNL     1       1.079   3.840 -23.613  0.00  0.00    +0.012 C 
BRANCH   3   5
ATOM      5  C   UNL     1       2.756   2.840 -22.490  0.00  0.00    +0.033 C 
BRANCH   5   6
ATOM      6  C   UNL     1       3.629   3.624 -23.047  0.00  0.00    +0.038 C 
BRANCH   6   7
ATOM      7  C   UNL     1       4.687   3.123 -23.610  0.00  0.00    +0.146 C 
BRANCH   7   8
ATOM      8  C   UNL     1       5.849   3.675 -23.420  0.00  0.00    +0.086 C 
ATOM      9  C   UNL     1       5.988   4.603 -22.520  0.00  0.00    +0.043 C 
ATOM     10  C   UNL     1       7.111   3.776 -23.720  0.00  0.00    +0.043 C 
BRANCH   8  11
ATOM     11  O   UNL     1       6.359   2.922 -24.349  0.00  0.00    -0.387 OA
ATOM     12  H   UNL     1       6.725   2.117 -23.948  0.00  0.00    +0.210 HD
ENDBRANCH   8  11
ENDBRANCH   7   8
BRANCH   7  13
ATOM     13  O   UNL     1       4.585   2.068 -24.364  0.00  0.00    -0.389 OA
ATOM     14  H   UNL     1       5.449   1.865 -24.755  0.00  0.00    +0.210 HD
ENDBRANCH   7  13
ENDBRANCH   6   7
ENDBRANCH   5   6
ENDBRANCH   3   5
ENDBRANCH   1   4
BRANCH   1  15
ATOM     15  O   UNL     1      -1.058   4.496 -23.340  0.00  0.00    -0.487 OA
BRANCH  15  16
ATOM     16  C   UNL     1      -2.319   4.243 -23.530  0.00  0.00    +0.135 A 
ATOM     17  C   UNL     1      -2.870   4.511 -24.677  0.00  0.00    +0.116 A 
ATOM     18  C   UNL     1      -4.131   4.258 -24.867  0.00  0.00    +0.253 A 
ATOM     19  N   UNL     1      -4.841   3.738 -23.910  0.00  0.00    -0.322 N 
ATOM     20  H   UNL     1      -5.796   3.547 -24.054  0.00  0.00    +0.169 HD
ATOM     21  C   UNL     1      -4.290   3.470 -22.764  0.00  0.00    +0.053 A 
ATOM     22  C   UNL     1      -5.000   2.950 -21.806  0.00  0.00    +0.026 A 
ATOM     23  C   UNL     1      -4.449   2.682 -20.660  0.00  0.00    +0.002 A 
ATOM     24  C   UNL     1      -3.188   2.935 -20.470  0.00  0.00    +0.001 A 
ATOM     25  C   UNL     1      -2.478   3.455 -21.427  0.00  0.00    +0.013 A 
ATOM     26  O   UNL     1      -4.682   4.526 -26.013  0.00  0.00    -0.268 OA
ATOM     27  C   UNL     1      -3.029   3.723 -22.574  0.00  0.00    +0.040 A 
ENDBRANCH  15  16
ENDBRANCH   1  15
TORSDOF 9
ENDMDL
MODEL 6
REMARK VINA RESULT:    -8.206      2.543      7.640
REMARK INTER + INTRA:         -12.926
REMARK INTER:                 -12.173
REMARK INTRA:                  -0.753
REMARK UNBOUND:                -0.643
REMARK  Name = ZINC000004492887
REMARK  12 active torsions:
REMARK  status: ('A' for Active; 'I' for Inactive)
REMARK    1  A    between atoms: C_1  and  C_2
REMARK    2  A    between atoms: C_2  and  C_17
REMARK    3  A    between atoms: C_3  and  C_4
REMARK    4  A    between atoms: C_4  and  O_5
REMARK    5  A    between atoms: O_5  and  C_6
REMARK    6  A    between atoms: C_17  and  C_18
REMARK    7  A    between atoms: C_18  and  C_19
REMARK    8  A    between atoms: C_19  and  O_20
REMARK    9  A    between atoms: C_19  and  C_21
REMARK   10  A    between atoms: C_21  and  C_22
REMARK   11  A    between atoms: C_21  and  C_23
REMARK   12  A    between atoms: C_21  and  O_24
REMARK                            x       y       z     vdW  Elec       q    Type
REMARK                         _______ _______ _______ _____ _____    ______ ____
ROOT
ATOM      1  C   UNL     1       1.287   4.114 -24.067  0.00  0.00    +0.256 C 
ENDROOT
BRANCH   1   4
ATOM      2  C   UNL     1      -0.840   4.981 -22.849  0.00  0.00    +0.039 C 
ATOM      3  C   UNL     1      -0.950   4.354 -23.983  0.00  0.00    -0.073 C 
ATOM      4  C   UNL     1       0.114   3.921 -24.592  0.00  0.00    +0.012 C 
BRANCH   3   5
ATOM      5  C   UNL     1      -2.124   4.161 -24.507  0.00  0.00    +0.033 C 
BRANCH   5   6
ATOM      6  C   UNL     1      -2.968   3.357 -23.933  0.00  0.00    +0.038 C 
BRANCH   6   7
ATOM      7  C   UNL     1      -4.198   3.733 -23.746  0.00  0.00    +0.146 C 
BRANCH   7   8
ATOM      8  C   UNL     1      -4.839   3.352 -22.680  0.00  0.00    +0.086 C 
ATOM      9  C   UNL     1      -4.189   2.833 -21.681  0.00  0.00    +0.043 C 
ATOM     10  C   UNL     1      -5.955   3.213 -22.026  0.00  0.00    +0.043 C 
BRANCH   8  11
ATOM     11  O   UNL     1      -5.960   3.732 -23.218  0.00  0.00    -0.387 OA
ATOM     12  H   UNL     1      -5.823   4.565 -23.696  0.00  0.00    +0.210 HD
ENDBRANCH   8  11
ENDBRANCH   7   8
BRANCH   7  13
ATOM     13  O   UNL     1      -4.789   4.488 -24.623  0.00  0.00    -0.389 OA
ATOM     14  H   UNL     1      -5.656   4.761 -24.285  0.00  0.00    +0.210 HD
ENDBRANCH   7  13
ENDBRANCH   6   7
ENDBRANCH   5   6
ENDBRANCH   3   5
ENDBRANCH   1   4
BRANCH   1  15
ATOM     15  O   UNL     1       2.152   3.144 -24.033  0.00  0.00    -0.487 OA
BRANCH  15  16
ATOM     16  C   UNL     1       2.627   2.736 -22.894  0.00  0.00    +0.135 A 
ATOM     17  C   UNL     1       1.833   2.212 -22.009  0.00  0.00    +0.116 A 
ATOM     18  C   UNL     1       2.308   1.804 -20.869  0.00  0.00    +0.253 A 
ATOM     19  N   UNL     1       3.578   1.920 -20.616  0.00  0.00    -0.322 N 
ATOM     20  H   UNL     1       3.937   1.611 -19.753  0.00  0.00    +0.169 HD
ATOM     21  C   UNL     1       4.372   2.444 -21.501  0.00  0.00    +0.053 A 
ATOM     22  C   UNL     1       5.642   2.560 -21.248  0.00  0.00    +0.026 A 
ATOM     23  C   UNL     1       6.436   3.084 -22.133  0.00  0.00    +0.002 A 
ATOM     24  C   UNL     1       5.961   3.492 -23.272  0.00  0.00    +0.001 A 
ATOM     25  C   UNL     1       4.692   3.376 -23.526  0.00  0.00    +0.013 A 
ATOM     26  O   UNL     1       1.514   1.280 -19.984  0.00  0.00    -0.268 OA
ATOM     27  C   UNL     1       3.897   2.852 -22.640  0.00  0.00    +0.040 A 
ENDBRANCH  15  16
ENDBRANCH   1  15
TORSDOF 9
ENDMDL
MODEL 7
REMARK VINA RESULT:    -7.758      2.979      7.588
REMARK INTER + INTRA:         -12.256
REMARK INTER:                 -11.731
REMARK INTRA:                  -0.526
REMARK UNBOUND:                -0.643
REMARK  Name = ZINC000004492887
REMARK  12 active torsions:
REMARK  status: ('A' for Active; 'I' for Inactive)
REMARK    1  A    between atoms: C_1  and  C_2
REMARK    2  A    between atoms: C_2  and  C_17
REMARK    3  A    between atoms: C_3  and  C_4
REMARK    4  A    between atoms: C_4  and  O_5
REMARK    5  A    between atoms: O_5  and  C_6
REMARK    6  A    between atoms: C_17  and  C_18
REMARK    7  A    between atoms: C_18  and  C_19
REMARK    8  A    between atoms: C_19  and  O_20
REMARK    9  A    between atoms: C_19  and  C_21
REMARK   10  A    between atoms: C_21  and  C_22
REMARK   11  A    between atoms: C_21  and  C_23
REMARK   12  A    between atoms: C_21  and  O_24
REMARK                            x       y       z     vdW  Elec       q    Type
REMARK                         _______ _______ _______ _____ _____    ______ ____
ROOT
ATOM      1  C   UNL     1       1.575   4.171 -23.914  0.00  0.00    +0.256 C 
ENDROOT
BRANCH   1   4
ATOM      2  C   UNL     1      -0.678   5.053 -22.960  0.00  0.00    +0.039 C 
ATOM      3  C   UNL     1      -0.666   4.339 -24.047  0.00  0.00    -0.073 C 
ATOM      4  C   UNL     1       0.460   3.898 -24.524  0.00  0.00    +0.012 C 
BRANCH   3   5
ATOM      5  C   UNL     1      -1.782   4.067 -24.657  0.00  0.00    +0.033 C 
BRANCH   5   6
ATOM      6  C   UNL     1      -2.655   3.283 -24.097  0.00  0.00    +0.038 C 
BRANCH   6   7
ATOM      7  C   UNL     1      -3.859   3.714 -23.863  0.00  0.00    +0.146 C 
BRANCH   7   8
ATOM      8  C   UNL     1      -4.469   3.375 -22.765  0.00  0.00    +0.086 C 
ATOM      9  C   UNL     1      -3.802   2.827 -21.793  0.00  0.00    +0.043 C 
ATOM     10  C   UNL     1      -5.559   3.301 -22.060  0.00  0.00    +0.043 C 
BRANCH   8  11
ATOM     11  O   UNL     1      -5.592   3.812 -23.255  0.00  0.00    -0.387 OA
ATOM     12  H   UNL     1      -5.667   3.540 -24.183  0.00  0.00    +0.210 HD
ENDBRANCH   8  11
ENDBRANCH   7   8
BRANCH   7  13
ATOM     13  O   UNL     1      -4.453   4.483 -24.726  0.00  0.00    -0.389 OA
ATOM     14  H   UNL     1      -4.070   5.373 -24.684  0.00  0.00    +0.210 HD
ENDBRANCH   7  13
ENDBRANCH   6   7
ENDBRANCH   5   6
ENDBRANCH   3   5
ENDBRANCH   1   4
BRANCH   1  15
ATOM     15  O   UNL     1       2.653   3.503 -24.201  0.00  0.00    -0.487 OA
BRANCH  15  16
ATOM     16  C   UNL     1       3.641   3.469 -23.357  0.00  0.00    +0.135 A 
ATOM     17  C   UNL     1       4.484   4.457 -23.304  0.00  0.00    +0.116 A 
ATOM     18  C   UNL     1       5.472   4.424 -22.459  0.00  0.00    +0.253 A 
ATOM     19  N   UNL     1       5.617   3.403 -21.669  0.00  0.00    -0.322 N 
ATOM     20  H   UNL     1       6.366   3.378 -21.029  0.00  0.00    +0.169 HD
ATOM     21  C   UNL     1       4.774   2.415 -21.721  0.00  0.00    +0.053 A 
ATOM     22  C   UNL     1       4.918   1.393 -20.930  0.00  0.00    +0.026 A 
ATOM     23  C   UNL     1       4.076   0.406 -20.983  0.00  0.00    +0.002 A 
ATOM     24  C   UNL     1       3.088   0.439 -21.827  0.00  0.00    +0.001 A 
ATOM     25  C   UNL     1       2.942   1.460 -22.619  0.00  0.00    +0.013 A 
ATOM     26  O   UNL     1       6.315   5.412 -22.407  0.00  0.00    -0.268 OA
ATOM     27  C   UNL     1       3.786   2.448 -22.566  0.00  0.00    +0.040 A 
ENDBRANCH  15  16
ENDBRANCH   1  15
TORSDOF 9
ENDMDL
MODEL 8
REMARK VINA RESULT:    -6.786      3.531      7.614
REMARK INTER + INTRA:         -10.801
REMARK INTER:                 -10.237
REMARK INTRA:                  -0.563
REMARK UNBOUND:                -0.643
REMARK  Name = ZINC000004492887
REMARK  12 active torsions:
REMARK  status: ('A' for Active; 'I' for Inactive)
REMARK    1  A    between atoms: C_1  and  C_2
REMARK    2  A    between atoms: C_2  and  C_17
REMARK    3  A    between atoms: C_3  and  C_4
REMARK    4  A    between atoms: C_4  and  O_5
REMARK    5  A    between atoms: O_5  and  C_6
REMARK    6  A    between atoms: C_17  and  C_18
REMARK    7  A    between atoms: C_18  and  C_19
REMARK    8  A    between atoms: C_19  and  O_20
REMARK    9  A    between atoms: C_19  and  C_21
REMARK   10  A    between atoms: C_21  and  C_22
REMARK   11  A    between atoms: C_21  and  C_23
REMARK   12  A    between atoms: C_21  and  O_24
REMARK                            x       y       z     vdW  Elec       q    Type
REMARK                         _______ _______ _______ _____ _____    ______ ____
ROOT
ATOM      1  C   UNL     1       1.420   4.933 -23.607  0.00  0.00    +0.256 C 
ENDROOT
BRANCH   1   4
ATOM      2  C   UNL     1       0.234   3.766 -25.604  0.00  0.00    +0.039 C 
ATOM      3  C   UNL     1      -0.283   3.701 -24.413  0.00  0.00    -0.073 C 
ATOM      4  C   UNL     1       0.310   4.285 -23.415  0.00  0.00    +0.012 C 
BRANCH   3   5
ATOM      5  C   UNL     1      -1.394   3.053 -24.221  0.00  0.00    +0.033 C 
BRANCH   5   6
ATOM      6  C   UNL     1      -1.817   2.832 -23.013  0.00  0.00    +0.038 C 
BRANCH   6   7
ATOM      7  C   UNL     1      -2.991   3.255 -22.648  0.00  0.00    +0.146 C 
BRANCH   7   8
ATOM      8  C   UNL     1      -3.320   3.257 -21.390  0.00  0.00    +0.086 C 
ATOM      9  C   UNL     1      -4.159   2.374 -20.936  0.00  0.00    +0.043 C 
ATOM     10  C   UNL     1      -3.215   3.770 -20.200  0.00  0.00    +0.043 C 
BRANCH   8  11
ATOM     11  O   UNL     1      -2.541   4.279 -21.188  0.00  0.00    -0.387 OA
ATOM     12  H   UNL     1      -1.887   4.332 -21.902  0.00  0.00    +0.210 HD
ENDBRANCH   8  11
ENDBRANCH   7   8
BRANCH   7  13
ATOM     13  O   UNL     1      -3.837   3.676 -23.541  0.00  0.00    -0.389 OA
ATOM     14  H   UNL     1      -3.623   4.590 -23.784  0.00  0.00    +0.210 HD
ENDBRANCH   7  13
ENDBRANCH   6   7
ENDBRANCH   5   6
ENDBRANCH   3   5
ENDBRANCH   1   4
BRANCH   1  15
ATOM     15  O   UNL     1       2.556   4.385 -23.289  0.00  0.00    -0.487 OA
BRANCH  15  16
ATOM     16  C   UNL     1       3.562   5.131 -22.940  0.00  0.00    +0.135 A 
ATOM     17  C   UNL     1       3.363   6.365 -22.585  0.00  0.00    +0.116 A 
ATOM     18  C   UNL     1       4.370   7.111 -22.235  0.00  0.00    +0.253 A 
ATOM     19  N   UNL     1       5.574   6.622 -22.241  0.00  0.00    -0.322 N 
ATOM     20  H   UNL     1       6.336   7.187 -21.977  0.00  0.00    +0.169 HD
ATOM     21  C   UNL     1       5.773   5.387 -22.597  0.00  0.00    +0.053 A 
ATOM     22  C   UNL     1       6.977   4.898 -22.603  0.00  0.00    +0.026 A 
ATOM     23  C   UNL     1       7.175   3.664 -22.959  0.00  0.00    +0.002 A 
ATOM     24  C   UNL     1       6.169   2.918 -23.308  0.00  0.00    +0.001 A 
ATOM     25  C   UNL     1       4.965   3.407 -23.302  0.00  0.00    +0.013 A 
ATOM     26  O   UNL     1       4.171   8.345 -21.880  0.00  0.00    -0.268 OA
ATOM     27  C   UNL     1       4.767   4.642 -22.946  0.00  0.00    +0.040 A 
ENDBRANCH  15  16
ENDBRANCH   1  15
TORSDOF 9
ENDMDL
MODEL 9
REMARK VINA RESULT:    -6.751      2.141      3.741
REMARK INTER + INTRA:         -10.749
REMARK INTER:                 -10.106
REMARK INTRA:                  -0.643
REMARK UNBOUND:                -0.643
REMARK  Name = ZINC000004492887
REMARK  12 active torsions:
REMARK  status: ('A' for Active; 'I' for Inactive)
REMARK    1  A    between atoms: C_1  and  C_2
REMARK    2  A    between atoms: C_2  and  C_17
REMARK    3  A    between atoms: C_3  and  C_4
REMARK    4  A    between atoms: C_4  and  O_5
REMARK    5  A    between atoms: O_5  and  C_6
REMARK    6  A    between atoms: C_17  and  C_18
REMARK    7  A    between atoms: C_18  and  C_19
REMARK    8  A    between atoms: C_19  and  O_20
REMARK    9  A    between atoms: C_19  and  C_21
REMARK   10  A    between atoms: C_21  and  C_22
REMARK   11  A    between atoms: C_21  and  C_23
REMARK   12  A    between atoms: C_21  and  O_24
REMARK                            x       y       z     vdW  Elec       q    Type
REMARK                         _______ _______ _______ _____ _____    ______ ____
ROOT
ATOM      1  C   UNL     1      -1.545   2.311 -21.390  0.00  0.00    +0.256 C 
ENDROOT
BRANCH   1   4
ATOM      2  C   UNL     1       0.263   3.733 -22.602  0.00  0.00    +0.039 C 
ATOM      3  C   UNL     1       0.598   2.631 -21.999  0.00  0.00    -0.073 C 
ATOM      4  C   UNL     1      -0.306   1.920 -21.393  0.00  0.00    +0.012 C 
BRANCH   3   5
ATOM      5  C   UNL     1       1.839   2.240 -22.002  0.00  0.00    +0.033 C 
BRANCH   5   6
ATOM      6  C   UNL     1       2.588   2.463 -23.040  0.00  0.00    +0.038 C 
BRANCH   6   7
ATOM      7  C   UNL     1       2.619   1.604 -24.015  0.00  0.00    +0.146 C 
BRANCH   7   8
ATOM      8  C   UNL     1       2.213   1.951 -25.201  0.00  0.00    +0.086 C 
ATOM      9  C   UNL     1       1.830   3.173 -25.425  0.00  0.00    +0.043 C 
ATOM     10  C   UNL     1       1.965   1.645 -26.441  0.00  0.00    +0.043 C 
BRANCH   8  11
ATOM     11  O   UNL     1       2.420   0.740 -25.627  0.00  0.00    -0.387 OA
ATOM     12  H   UNL     1       1.883   0.579 -26.419  0.00  0.00    +0.210 HD
ENDBRANCH   8  11
ENDBRANCH   7   8
BRANCH   7  13
ATOM     13  O   UNL     1       3.056   0.397 -23.806  0.00  0.00    -0.389 OA
ATOM     14  H   UNL     1       2.837   0.127 -22.900  0.00  0.00    +0.210 HD
ENDBRANCH   7  13
ENDBRANCH   6   7
ENDBRANCH   5   6
ENDBRANCH   3   5
ENDBRANCH   1   4
BRANCH   1  15
ATOM     15  O   UNL     1      -2.394   1.788 -22.225  0.00  0.00    -0.487 OA
BRANCH  15  16
ATOM     16  C   UNL     1      -3.408   2.486 -22.644  0.00  0.00    +0.135 A 
ATOM     17  C   UNL     1      -4.449   2.641 -21.881  0.00  0.00    +0.116 A 
ATOM     18  C   UNL     1      -5.464   3.339 -22.300  0.00  0.00    +0.253 A 
ATOM     19  N   UNL     1      -5.436   3.881 -23.481  0.00  0.00    -0.322 N 
ATOM     20  H   UNL     1      -6.204   4.410 -23.798  0.00  0.00    +0.169 HD
ATOM     21  C   UNL     1      -4.395   3.726 -24.244  0.00  0.00    +0.053 A 
ATOM     22  C   UNL     1      -4.367   4.267 -25.425  0.00  0.00    +0.026 A 
ATOM     23  C   UNL     1      -3.326   4.112 -26.188  0.00  0.00    +0.002 A 
ATOM     24  C   UNL     1      -2.312   3.414 -25.769  0.00  0.00    +0.001 A 
ATOM     25  C   UNL     1      -2.339   2.872 -24.588  0.00  0.00    +0.013 A 
ATOM     26  O   UNL     1      -6.504   3.495 -21.537  0.00  0.00    -0.268 OA
ATOM     27  C   UNL     1      -3.381   3.028 -23.825  0.00  0.00    +0.040 A 
ENDBRANCH  15  16
ENDBRANCH   1  15
TORSDOF 9
ENDMDL
