MODEL 1
REMARK VINA RESULT:   -11.104      0.000      0.000
REMARK INTER + INTRA:         -11.754
REMARK INTER:                 -11.754
REMARK INTRA:                   0.000
REMARK UNBOUND:                 0.000
REMARK  Name = ZINC000017417711
REMARK  3 active torsions:
REMARK  status: ('A' for Active; 'I' for Inactive)
REMARK    1  A    between atoms: C_1  and  C_2
REMARK    2  A    between atoms: C_10  and  O_11
REMARK    3  A    between atoms: C_21  and  O_22
REMARK                            x       y       z     vdW  Elec       q    Type
REMARK                         _______ _______ _______ _____ _____    ______ ____
ROOT
ATOM      1  C   UNL     1       2.762   2.312 -24.786  0.00  0.00    +0.014 C 
ATOM      2  C   UNL     1       2.021   2.057 -23.748  0.00  0.00    -0.003 C 
ATOM      3  C   UNL     1       1.389   2.654 -24.715  0.00  0.00    +0.010 C 
ATOM      4  C   UNL     1       0.127   2.941 -24.586  0.00  0.00    +0.009 C 
ATOM      5  C   UNL     1      -0.502   2.630 -23.492  0.00  0.00    +0.023 C 
ATOM      6  C   UNL     1      -1.764   2.917 -23.363  0.00  0.00    -0.039 A 
ATOM      7  C   UNL     1      -2.395   3.514 -24.330  0.00  0.00    +0.023 A 
ATOM      8  C   UNL     1      -3.657   3.801 -24.202  0.00  0.00    +0.061 A 
ATOM      9  C   UNL     1      -4.287   3.491 -23.107  0.00  0.00    +0.145 A 
ATOM     10  C   UNL     1      -3.654   2.893 -22.141  0.00  0.00    +0.064 A 
ATOM     11 BR   UNL     1      -4.283   2.583 -21.047  0.00  0.00    -0.046 Br
ATOM     12 BR   UNL     1      -4.290   4.398 -25.167  0.00  0.00    -0.046 Br
ATOM     13  C   UNL     1      -2.393   2.607 -22.269  0.00  0.00    -0.026 A 
ATOM     14  C   UNL     1      -1.760   2.009 -21.303  0.00  0.00    +0.037 C 
ATOM     15  C   UNL     1      -0.498   1.723 -21.431  0.00  0.00    +0.009 C 
ATOM     16  C   UNL     1       0.131   2.033 -22.526  0.00  0.00    +0.000 C 
ATOM     17  C   UNL     1       3.255   1.667 -23.626  0.00  0.00    +0.121 C 
ATOM     18  C   UNL     1       3.389   1.116 -22.456  0.00  0.00    +0.032 C 
ATOM     19  C   UNL     1       2.237   1.165 -21.856  0.00  0.00    +0.007 C 
ATOM     20  C   UNL     1       1.392   1.746 -22.654  0.00  0.00    +0.001 C 
ENDROOT
BRANCH   9  21
ATOM     21  O   UNL     1      -5.548   3.777 -22.979  0.00  0.00    -0.505 OA
ATOM     22  H   UNL     1      -6.135   3.637 -23.695  0.00  0.00    +0.292 HD
ENDBRANCH   9  21
BRANCH  17  23
ATOM     23  O   UNL     1       4.191   1.805 -24.517  0.00  0.00    -0.391 OA
ATOM     24  H   UNL     1       3.800   1.776 -25.405  0.00  0.00    +0.210 HD
ENDBRANCH  17  23
TORSDOF 2
ENDMDL
MODEL 2
REMARK VINA RESULT:   -11.071      2.214      6.520
REMARK INTER + INTRA:         -11.719
REMARK INTER:                 -11.719
REMARK INTRA:                   0.000
REMARK UNBOUND:                 0.000
REMARK  Name = ZINC000017417711
REMARK  3 active torsions:
REMARK  status: ('A' for Active; 'I' for Inactive)
REMARK    1  A    between atoms: C_1  and  C_2
REMARK    2  A    between atoms: C_10  and  O_11
REMARK    3  A    between atoms: C_21  and  O_22
REMARK                            x       y       z     vdW  Elec       q    Type
REMARK                         _______ _______ _______ _____ _____    ______ ____
ROOT
ATOM      1  C   UNL     1      -4.858   2.861 -21.454  0.00  0.00    +0.014 C 
ATOM      2  C   UNL     1      -4.137   3.126 -22.504  0.00  0.00    -0.003 C 
ATOM      3  C   UNL     1      -3.465   2.612 -21.517  0.00  0.00    +0.010 C 
ATOM      4  C   UNL     1      -2.186   2.408 -21.638  0.00  0.00    +0.009 C 
ATOM      5  C   UNL     1      -1.581   2.718 -22.746  0.00  0.00    +0.023 C 
ATOM      6  C   UNL     1      -0.303   2.515 -22.868  0.00  0.00    -0.039 A 
ATOM      7  C   UNL     1       0.370   2.001 -21.881  0.00  0.00    +0.023 A 
ATOM      8  C   UNL     1       1.649   1.797 -22.002  0.00  0.00    +0.061 A 
ATOM      9  C   UNL     1       2.254   2.107 -23.110  0.00  0.00    +0.145 A 
ATOM     10  C   UNL     1       1.580   2.620 -24.097  0.00  0.00    +0.064 A 
ATOM     11 BR   UNL     1       2.186   2.930 -25.205  0.00  0.00    -0.046 Br
ATOM     12 BR   UNL     1       2.321   1.284 -21.016  0.00  0.00    -0.046 Br
ATOM     13  C   UNL     1       0.303   2.824 -23.976  0.00  0.00    -0.026 A 
ATOM     14  C   UNL     1      -0.371   3.337 -24.963  0.00  0.00    +0.037 C 
ATOM     15  C   UNL     1      -1.649   3.541 -24.841  0.00  0.00    +0.009 C 
ATOM     16  C   UNL     1      -2.254   3.231 -23.733  0.00  0.00    +0.000 C 
ATOM     17  C   UNL     1      -5.396   3.423 -22.637  0.00  0.00    +0.121 C 
ATOM     18  C   UNL     1      -5.568   3.917 -23.827  0.00  0.00    +0.032 C 
ATOM     19  C   UNL     1      -4.416   3.924 -24.429  0.00  0.00    +0.007 C 
ATOM     20  C   UNL     1      -3.532   3.435 -23.612  0.00  0.00    +0.001 C 
ENDROOT
BRANCH   9  21
ATOM     21  O   UNL     1       3.532   1.903 -23.232  0.00  0.00    -0.505 OA
ATOM     22  H   UNL     1       4.105   2.085 -22.513  0.00  0.00    +0.292 HD
ENDBRANCH   9  21
BRANCH  17  23
ATOM     23  O   UNL     1      -6.319   3.257 -21.738  0.00  0.00    -0.391 OA
ATOM     24  H   UNL     1      -7.149   2.999 -22.170  0.00  0.00    +0.210 HD
ENDBRANCH  17  23
TORSDOF 2
ENDMDL
MODEL 3
REMARK VINA RESULT:   -11.063      0.804      2.596
REMARK INTER + INTRA:         -11.710
REMARK INTER:                 -11.710
REMARK INTRA:                   0.000
REMARK UNBOUND:                 0.000
REMARK  Name = ZINC000017417711
REMARK  3 active torsions:
REMARK  status: ('A' for Active; 'I' for Inactive)
REMARK    1  A    between atoms: C_1  and  C_2
REMARK    2  A    between atoms: C_10  and  O_11
REMARK    3  A    between atoms: C_21  and  O_22
REMARK                            x       y       z     vdW  Elec       q    Type
REMARK                         _______ _______ _______ _____ _____    ______ ____
ROOT
ATOM      1  C   UNL     1       2.376   1.136 -21.733  0.00  0.00    +0.014 C 
ATOM      2  C   UNL     1       1.810   1.752 -22.729  0.00  0.00    -0.003 C 
ATOM      3  C   UNL     1       1.005   1.491 -21.742  0.00  0.00    +0.010 C 
ATOM      4  C   UNL     1      -0.245   1.844 -21.812  0.00  0.00    +0.009 C 
ATOM      5  C   UNL     1      -0.689   2.458 -22.869  0.00  0.00    +0.023 C 
ATOM      6  C   UNL     1      -1.938   2.810 -22.940  0.00  0.00    -0.039 A 
ATOM      7  C   UNL     1      -2.743   2.549 -21.953  0.00  0.00    +0.023 A 
ATOM      8  C   UNL     1      -3.993   2.902 -22.023  0.00  0.00    +0.061 A 
ATOM      9  C   UNL     1      -4.437   3.515 -23.080  0.00  0.00    +0.145 A 
ATOM     10  C   UNL     1      -3.631   3.776 -24.066  0.00  0.00    +0.064 A 
ATOM     11 BR   UNL     1      -4.074   4.389 -25.123  0.00  0.00    -0.046 Br
ATOM     12 BR   UNL     1      -4.798   2.641 -21.037  0.00  0.00    -0.046 Br
ATOM     13  C   UNL     1      -2.382   3.424 -23.997  0.00  0.00    -0.026 A 
ATOM     14  C   UNL     1      -1.576   3.684 -24.983  0.00  0.00    +0.037 C 
ATOM     15  C   UNL     1      -0.326   3.331 -24.912  0.00  0.00    +0.009 C 
ATOM     16  C   UNL     1       0.117   2.718 -23.856  0.00  0.00    +0.000 C 
ATOM     17  C   UNL     1       3.075   1.512 -22.905  0.00  0.00    +0.121 C 
ATOM     18  C   UNL     1       3.414   1.977 -24.071  0.00  0.00    +0.032 C 
ATOM     19  C   UNL     1       2.357   2.504 -24.615  0.00  0.00    +0.007 C 
ATOM     20  C   UNL     1       1.366   2.366 -23.786  0.00  0.00    +0.001 C 
ENDROOT
BRANCH   9  21
ATOM     21  O   UNL     1      -5.686   3.868 -23.151  0.00  0.00    -0.505 OA
ATOM     22  H   UNL     1      -6.022   4.241 -23.941  0.00  0.00    +0.292 HD
ENDBRANCH   9  21
BRANCH  17  23
ATOM     23  O   UNL     1       3.864   0.913 -22.064  0.00  0.00    -0.391 OA
ATOM     24  H   UNL     1       3.417   0.131 -21.702  0.00  0.00    +0.210 HD
ENDBRANCH  17  23
TORSDOF 2
ENDMDL
MODEL 4
REMARK VINA RESULT:   -10.745      2.421      5.864
REMARK INTER + INTRA:         -11.373
REMARK INTER:                 -11.373
REMARK INTRA:                   0.000
REMARK UNBOUND:                 0.000
REMARK  Name = ZINC000017417711
REMARK  3 active torsions:
REMARK  status: ('A' for Active; 'I' for Inactive)
REMARK    1  A    between atoms: C_1  and  C_2
REMARK    2  A    between atoms: C_10  and  O_11
REMARK    3  A    between atoms: C_21  and  O_22
REMARK                            x       y       z     vdW  Elec       q    Type
REMARK                         _______ _______ _______ _____ _____    ______ ____
ROOT
ATOM      1  C   UNL     1      -3.685   4.066 -25.779  0.00  0.00    +0.014 C 
ATOM      2  C   UNL     1      -3.422   3.661 -24.572  0.00  0.00    -0.003 C 
ATOM      3  C   UNL     1      -2.393   3.657 -25.367  0.00  0.00    +0.010 C 
ATOM      4  C   UNL     1      -1.233   3.269 -24.927  0.00  0.00    +0.009 C 
ATOM      5  C   UNL     1      -1.101   2.885 -23.692  0.00  0.00    +0.023 C 
ATOM      6  C   UNL     1       0.059   2.497 -23.252  0.00  0.00    -0.039 A 
ATOM      7  C   UNL     1       1.087   2.493 -24.047  0.00  0.00    +0.023 A 
ATOM      8  C   UNL     1       2.248   2.105 -23.607  0.00  0.00    +0.061 A 
ATOM      9  C   UNL     1       2.379   1.721 -22.372  0.00  0.00    +0.145 A 
ATOM     10  C   UNL     1       1.350   1.726 -21.577  0.00  0.00    +0.064 A 
ATOM     11 BR   UNL     1       1.482   1.342 -20.342  0.00  0.00    -0.046 Br
ATOM     12 BR   UNL     1       3.276   2.100 -24.402  0.00  0.00    -0.046 Br
ATOM     13  C   UNL     1       0.191   2.113 -22.016  0.00  0.00    -0.026 A 
ATOM     14  C   UNL     1      -0.839   2.118 -21.222  0.00  0.00    +0.037 C 
ATOM     15  C   UNL     1      -1.999   2.506 -21.662  0.00  0.00    +0.009 C 
ATOM     16  C   UNL     1      -2.130   2.889 -22.897  0.00  0.00    +0.000 C 
ATOM     17  C   UNL     1      -4.664   3.995 -24.759  0.00  0.00    +0.121 C 
ATOM     18  C   UNL     1      -5.300   3.818 -23.639  0.00  0.00    +0.032 C 
ATOM     19  C   UNL     1      -4.451   3.374 -22.761  0.00  0.00    +0.007 C 
ATOM     20  C   UNL     1      -3.290   3.277 -23.337  0.00  0.00    +0.001 C 
ENDROOT
BRANCH   9  21
ATOM     21  O   UNL     1       3.539   1.333 -21.931  0.00  0.00    -0.505 OA
ATOM     22  H   UNL     1       3.647   1.116 -21.027  0.00  0.00    +0.292 HD
ENDBRANCH   9  21
BRANCH  17  23
ATOM     23  O   UNL     1      -5.179   4.430 -25.870  0.00  0.00    -0.391 OA
ATOM     24  H   UNL     1      -6.144   4.327 -25.841  0.00  0.00    +0.210 HD
ENDBRANCH  17  23
TORSDOF 2
ENDMDL
