MODEL 1
REMARK VINA RESULT:    -9.531      0.000      0.000
REMARK INTER + INTRA:         -10.079
REMARK INTER:                 -10.280
REMARK INTRA:                   0.202
REMARK UNBOUND:                 0.567
REMARK  Name = ZINC000000039119
REMARK  3 active torsions:
REMARK  status: ('A' for Active; 'I' for Inactive)
REMARK    1  A    between atoms: C_1  and  O_2
REMARK    2  A    between atoms: O_2  and  C_3
REMARK    3  A    between atoms: C_4  and  C_5
REMARK                            x       y       z     vdW  Elec       q    Type
REMARK                         _______ _______ _______ _____ _____    ______ ____
ROOT
ATOM      1  C   UNL     1      -0.728   3.358 -23.873  0.00  0.00    +0.211 A 
ATOM      2  C   UNL     1      -0.741   2.929 -22.646  0.00  0.00    +0.181 A 
ATOM      3  O   UNL     1       0.306   2.332 -22.156  0.00  0.00    -0.450 OA
ATOM      4  C   UNL     1       1.364   2.165 -22.893  0.00  0.00    +0.150 A 
ATOM      5  C   UNL     1       1.375   2.595 -24.120  0.00  0.00    +0.069 A 
ATOM      6  C   UNL     1       2.433   2.428 -24.856  0.00  0.00    +0.019 A 
ATOM      7  C   UNL     1       3.480   1.831 -24.366  0.00  0.00    +0.048 A 
ATOM      8  C   UNL     1       3.468   1.402 -23.139  0.00  0.00    +0.138 A 
ATOM      9  O   UNL     1       4.363   0.787 -22.425  0.00  0.00    -0.463 OA
ATOM     10  C   UNL     1       3.857   0.574 -21.245  0.00  0.00    +0.196 A 
ATOM     11  C   UNL     1       2.651   1.057 -21.232  0.00  0.00    +0.053 A 
ATOM     12  C   UNL     1       2.410   1.569 -22.403  0.00  0.00    +0.063 A 
ATOM     13  C   UNL     1       0.331   3.191 -24.610  0.00  0.00    +0.235 A 
ATOM     14  O   UNL     1       0.342   3.620 -25.837  0.00  0.00    -0.283 OA
ENDROOT
BRANCH   2  15
ATOM     15  C   UNL     1      -1.798   3.096 -21.909  0.00  0.00    +0.021 A 
ATOM     16  C   UNL     1      -2.633   2.114 -21.738  0.00  0.00    +0.012 A 
ATOM     17  C   UNL     1      -3.691   2.281 -21.001  0.00  0.00    +0.001 A 
ATOM     18  C   UNL     1      -3.914   3.430 -20.436  0.00  0.00    +0.000 A 
ATOM     19  C   UNL     1      -3.079   4.411 -20.608  0.00  0.00    +0.001 A 
ATOM     20  C   UNL     1      -2.021   4.244 -21.345  0.00  0.00    +0.012 A 
ENDBRANCH   2  15
BRANCH   1  22
ATOM     21  C   UNL     1      -2.568   3.316 -25.171  0.00  0.00    +0.277 C 
ATOM     22  O   UNL     1      -1.774   3.955 -24.364  0.00  0.00    -0.488 OA
ENDBRANCH   1  22
TORSDOF 2
ENDMDL
MODEL 2
REMARK VINA RESULT:    -8.734      1.494      5.533
REMARK INTER + INTRA:          -9.189
REMARK INTER:                  -9.536
REMARK INTRA:                   0.348
REMARK UNBOUND:                 0.567
REMARK  Name = ZINC000000039119
REMARK  3 active torsions:
REMARK  status: ('A' for Active; 'I' for Inactive)
REMARK    1  A    between atoms: C_1  and  O_2
REMARK    2  A    between atoms: O_2  and  C_3
REMARK    3  A    between atoms: C_4  and  C_5
REMARK                            x       y       z     vdW  Elec       q    Type
REMARK                         _______ _______ _______ _____ _____    ______ ____
ROOT
ATOM      1  C   UNL     1       0.590   2.958 -24.380  0.00  0.00    +0.211 A 
ATOM      2  C   UNL     1       0.646   2.555 -23.145  0.00  0.00    +0.181 A 
ATOM      3  O   UNL     1      -0.433   2.530 -22.420  0.00  0.00    -0.450 OA
ATOM      4  C   UNL     1      -1.568   2.909 -22.929  0.00  0.00    +0.150 A 
ATOM      5  C   UNL     1      -1.623   3.311 -24.164  0.00  0.00    +0.069 A 
ATOM      6  C   UNL     1      -2.758   3.690 -24.673  0.00  0.00    +0.019 A 
ATOM      7  C   UNL     1      -3.837   3.665 -23.948  0.00  0.00    +0.048 A 
ATOM      8  C   UNL     1      -3.781   3.262 -22.713  0.00  0.00    +0.138 A 
ATOM      9  O   UNL     1      -4.693   3.144 -21.795  0.00  0.00    -0.463 OA
ATOM     10  C   UNL     1      -4.122   2.693 -20.717  0.00  0.00    +0.196 A 
ATOM     11  C   UNL     1      -2.857   2.532 -20.970  0.00  0.00    +0.053 A 
ATOM     12  C   UNL     1      -2.646   2.884 -22.204  0.00  0.00    +0.063 A 
ATOM     13  C   UNL     1      -0.546   3.336 -24.889  0.00  0.00    +0.235 A 
ATOM     14  O   UNL     1      -0.601   3.739 -26.123  0.00  0.00    -0.283 OA
ENDROOT
BRANCH   2  15
ATOM     15  C   UNL     1       1.781   2.176 -22.636  0.00  0.00    +0.021 A 
ATOM     16  C   UNL     1       2.743   3.037 -22.481  0.00  0.00    +0.012 A 
ATOM     17  C   UNL     1       3.877   2.658 -21.971  0.00  0.00    +0.001 A 
ATOM     18  C   UNL     1       4.050   1.420 -21.617  0.00  0.00    +0.000 A 
ATOM     19  C   UNL     1       3.087   0.560 -21.772  0.00  0.00    +0.001 A 
ATOM     20  C   UNL     1       1.953   0.938 -22.281  0.00  0.00    +0.012 A 
ENDBRANCH   2  15
BRANCH   1  22
ATOM     21  C   UNL     1       1.962   1.972 -25.868  0.00  0.00    +0.277 C 
ATOM     22  O   UNL     1       1.669   2.982 -25.105  0.00  0.00    -0.488 OA
ENDBRANCH   1  22
TORSDOF 2
ENDMDL
MODEL 3
REMARK VINA RESULT:    -8.633      2.314      6.511
REMARK INTER + INTRA:          -9.075
REMARK INTER:                  -9.354
REMARK INTRA:                   0.278
REMARK UNBOUND:                 0.567
REMARK  Name = ZINC000000039119
REMARK  3 active torsions:
REMARK  status: ('A' for Active; 'I' for Inactive)
REMARK    1  A    between atoms: C_1  and  O_2
REMARK    2  A    between atoms: O_2  and  C_3
REMARK    3  A    between atoms: C_4  and  C_5
REMARK                            x       y       z     vdW  Elec       q    Type
REMARK                         _______ _______ _______ _____ _____    ______ ____
ROOT
ATOM      1  C   UNL     1       3.326   2.357 -21.646  0.00  0.00    +0.211 A 
ATOM      2  C   UNL     1       3.442   3.104 -22.703  0.00  0.00    +0.181 A 
ATOM      3  O   UNL     1       2.407   3.325 -23.460  0.00  0.00    -0.450 OA
ATOM      4  C   UNL     1       1.257   2.798 -23.159  0.00  0.00    +0.150 A 
ATOM      5  C   UNL     1       1.142   2.050 -22.102  0.00  0.00    +0.069 A 
ATOM      6  C   UNL     1      -0.007   1.523 -21.801  0.00  0.00    +0.019 A 
ATOM      7  C   UNL     1      -1.042   1.744 -22.558  0.00  0.00    +0.048 A 
ATOM      8  C   UNL     1      -0.926   2.492 -23.615  0.00  0.00    +0.138 A 
ATOM      9  O   UNL     1      -1.786   2.861 -24.517  0.00  0.00    -0.463 OA
ATOM     10  C   UNL     1      -1.167   3.617 -25.376  0.00  0.00    +0.196 A 
ATOM     11  C   UNL     1       0.075   3.714 -25.004  0.00  0.00    +0.053 A 
ATOM     12  C   UNL     1       0.224   3.019 -23.915  0.00  0.00    +0.063 A 
ATOM     13  C   UNL     1       2.175   1.829 -21.346  0.00  0.00    +0.235 A 
ATOM     14  O   UNL     1       2.060   1.082 -20.289  0.00  0.00    -0.283 OA
ENDROOT
BRANCH   2  15
ATOM     15  C   UNL     1       4.592   3.631 -23.004  0.00  0.00    +0.021 A 
ATOM     16  C   UNL     1       5.451   2.958 -23.709  0.00  0.00    +0.012 A 
ATOM     17  C   UNL     1       6.600   3.485 -24.010  0.00  0.00    +0.001 A 
ATOM     18  C   UNL     1       6.891   4.685 -23.605  0.00  0.00    +0.000 A 
ATOM     19  C   UNL     1       6.031   5.358 -22.899  0.00  0.00    +0.001 A 
ATOM     20  C   UNL     1       4.882   4.831 -22.598  0.00  0.00    +0.012 A 
ENDBRANCH   2  15
BRANCH   1  22
ATOM     21  C   UNL     1       4.941   0.973 -20.906  0.00  0.00    +0.277 C 
ATOM     22  O   UNL     1       4.360   2.135 -20.889  0.00  0.00    -0.488 OA
ENDBRANCH   1  22
TORSDOF 2
ENDMDL
MODEL 4
REMARK VINA RESULT:    -8.500      2.283      3.940
REMARK INTER + INTRA:          -8.927
REMARK INTER:                  -9.229
REMARK INTRA:                   0.302
REMARK UNBOUND:                 0.567
REMARK  Name = ZINC000000039119
REMARK  3 active torsions:
REMARK  status: ('A' for Active; 'I' for Inactive)
REMARK    1  A    between atoms: C_1  and  O_2
REMARK    2  A    between atoms: O_2  and  C_3
REMARK    3  A    between atoms: C_4  and  C_5
REMARK                            x       y       z     vdW  Elec       q    Type
REMARK                         _______ _______ _______ _____ _____    ______ ____
ROOT
ATOM      1  C   UNL     1       1.441   1.748 -22.648  0.00  0.00    +0.211 A 
ATOM      2  C   UNL     1       1.436   2.970 -23.090  0.00  0.00    +0.181 A 
ATOM      3  O   UNL     1       2.538   3.661 -23.104  0.00  0.00    -0.450 OA
ATOM      4  C   UNL     1       3.644   3.129 -22.676  0.00  0.00    +0.150 A 
ATOM      5  C   UNL     1       3.648   1.907 -22.234  0.00  0.00    +0.069 A 
ATOM      6  C   UNL     1       4.755   1.375 -21.805  0.00  0.00    +0.019 A 
ATOM      7  C   UNL     1       5.857   2.066 -21.819  0.00  0.00    +0.048 A 
ATOM      8  C   UNL     1       5.852   3.288 -22.262  0.00  0.00    +0.138 A 
ATOM      9  O   UNL     1       6.795   4.174 -22.380  0.00  0.00    -0.463 OA
ATOM     10  C   UNL     1       6.272   5.254 -22.882  0.00  0.00    +0.196 A 
ATOM     11  C   UNL     1       5.005   5.035 -23.073  0.00  0.00    +0.053 A 
ATOM     12  C   UNL     1       4.745   3.820 -22.690  0.00  0.00    +0.063 A 
ATOM     13  C   UNL     1       2.548   1.216 -22.219  0.00  0.00    +0.235 A 
ATOM     14  O   UNL     1       2.553  -0.006 -21.777  0.00  0.00    -0.283 OA
ENDROOT
BRANCH   2  15
ATOM     15  C   UNL     1       0.329   3.501 -23.519  0.00  0.00    +0.021 A 
ATOM     16  C   UNL     1      -0.315   4.350 -22.774  0.00  0.00    +0.012 A 
ATOM     17  C   UNL     1      -1.421   4.881 -23.202  0.00  0.00    +0.001 A 
ATOM     18  C   UNL     1      -1.883   4.565 -24.375  0.00  0.00    +0.000 A 
ATOM     19  C   UNL     1      -1.238   3.716 -25.120  0.00  0.00    +0.001 A 
ATOM     20  C   UNL     1      -0.132   3.185 -24.691  0.00  0.00    +0.012 A 
ENDBRANCH   2  15
BRANCH   1  22
ATOM     21  C   UNL     1      -0.444   1.104 -21.598  0.00  0.00    +0.277 C 
ATOM     22  O   UNL     1       0.340   1.056 -22.633  0.00  0.00    -0.488 OA
ENDBRANCH   1  22
TORSDOF 2
ENDMDL
MODEL 5
REMARK VINA RESULT:    -8.067      1.822      6.338
REMARK INTER + INTRA:          -8.444
REMARK INTER:                  -8.673
REMARK INTRA:                   0.229
REMARK UNBOUND:                 0.567
REMARK  Name = ZINC000000039119
REMARK  3 active torsions:
REMARK  status: ('A' for Active; 'I' for Inactive)
REMARK    1  A    between atoms: C_1  and  O_2
REMARK    2  A    between atoms: O_2  and  C_3
REMARK    3  A    between atoms: C_4  and  C_5
REMARK                            x       y       z     vdW  Elec       q    Type
REMARK                         _______ _______ _______ _____ _____    ______ ____
ROOT
ATOM      1  C   UNL     1      -0.346   2.761 -22.239  0.00  0.00    +0.211 A 
ATOM      2  C   UNL     1       0.104   2.850 -23.455  0.00  0.00    +0.181 A 
ATOM      3  O   UNL     1      -0.720   3.061 -24.439  0.00  0.00    -0.450 OA
ATOM      4  C   UNL     1      -1.994   3.181 -24.206  0.00  0.00    +0.150 A 
ATOM      5  C   UNL     1      -2.442   3.092 -22.989  0.00  0.00    +0.069 A 
ATOM      6  C   UNL     1      -3.716   3.212 -22.756  0.00  0.00    +0.019 A 
ATOM      7  C   UNL     1      -4.540   3.423 -23.740  0.00  0.00    +0.048 A 
ATOM      8  C   UNL     1      -4.090   3.512 -24.956  0.00  0.00    +0.138 A 
ATOM      9  O   UNL     1      -4.689   3.714 -26.092  0.00  0.00    -0.463 OA
ATOM     10  C   UNL     1      -3.785   3.718 -27.028  0.00  0.00    +0.196 A 
ATOM     11  C   UNL     1      -2.629   3.519 -26.469  0.00  0.00    +0.053 A 
ATOM     12  C   UNL     1      -2.817   3.392 -25.189  0.00  0.00    +0.063 A 
ATOM     13  C   UNL     1      -1.620   2.882 -22.006  0.00  0.00    +0.235 A 
ATOM     14  O   UNL     1      -2.069   2.792 -20.790  0.00  0.00    -0.283 OA
ENDROOT
BRANCH   2  15
ATOM     15  C   UNL     1       1.377   2.729 -23.688  0.00  0.00    +0.021 A 
ATOM     16  C   UNL     1       2.188   3.701 -23.390  0.00  0.00    +0.012 A 
ATOM     17  C   UNL     1       3.461   3.580 -23.623  0.00  0.00    +0.001 A 
ATOM     18  C   UNL     1       3.924   2.488 -24.153  0.00  0.00    +0.000 A 
ATOM     19  C   UNL     1       3.113   1.517 -24.451  0.00  0.00    +0.001 A 
ATOM     20  C   UNL     1       1.840   1.637 -24.218  0.00  0.00    +0.012 A 
ENDBRANCH   2  15
BRANCH   1  22
ATOM     21  C   UNL     1       0.610   1.355 -20.762  0.00  0.00    +0.277 C 
ATOM     22  O   UNL     1       0.478   2.550 -21.254  0.00  0.00    -0.488 OA
ENDBRANCH   1  22
TORSDOF 2
ENDMDL
MODEL 6
REMARK VINA RESULT:    -7.511      5.597      7.135
REMARK INTER + INTRA:          -7.823
REMARK INTER:                  -8.027
REMARK INTRA:                   0.205
REMARK UNBOUND:                 0.567
REMARK  Name = ZINC000000039119
REMARK  3 active torsions:
REMARK  status: ('A' for Active; 'I' for Inactive)
REMARK    1  A    between atoms: C_1  and  O_2
REMARK    2  A    between atoms: O_2  and  C_3
REMARK    3  A    between atoms: C_4  and  C_5
REMARK                            x       y       z     vdW  Elec       q    Type
REMARK                         _______ _______ _______ _____ _____    ______ ____
ROOT
ATOM      1  C   UNL     1       5.729   6.688 -22.056  0.00  0.00    +0.211 A 
ATOM      2  C   UNL     1       4.523   7.173 -22.070  0.00  0.00    +0.181 A 
ATOM      3  O   UNL     1       3.536   6.447 -22.509  0.00  0.00    -0.450 OA
ATOM      4  C   UNL     1       3.757   5.239 -22.934  0.00  0.00    +0.150 A 
ATOM      5  C   UNL     1       4.964   4.755 -22.920  0.00  0.00    +0.069 A 
ATOM      6  C   UNL     1       5.184   3.547 -23.345  0.00  0.00    +0.019 A 
ATOM      7  C   UNL     1       4.197   2.821 -23.785  0.00  0.00    +0.048 A 
ATOM      8  C   UNL     1       2.991   3.306 -23.798  0.00  0.00    +0.138 A 
ATOM      9  O   UNL     1       1.856   2.800 -24.178  0.00  0.00    -0.463 OA
ATOM     10  C   UNL     1       0.933   3.697 -23.988  0.00  0.00    +0.196 A 
ATOM     11  C   UNL     1       1.499   4.756 -23.490  0.00  0.00    +0.053 A 
ATOM     12  C   UNL     1       2.771   4.514 -23.373  0.00  0.00    +0.063 A 
ATOM     13  C   UNL     1       5.950   5.479 -22.482  0.00  0.00    +0.235 A 
ATOM     14  O   UNL     1       7.155   4.995 -22.468  0.00  0.00    -0.283 OA
ENDROOT
BRANCH   2  15
ATOM     15  C   UNL     1       4.303   8.381 -21.645  0.00  0.00    +0.021 A 
ATOM     16  C   UNL     1       4.163   9.354 -22.495  0.00  0.00    +0.012 A 
ATOM     17  C   UNL     1       3.943  10.562 -22.070  0.00  0.00    +0.001 A 
ATOM     18  C   UNL     1       3.862  10.798 -20.794  0.00  0.00    +0.000 A 
ATOM     19  C   UNL     1       4.002   9.825 -19.944  0.00  0.00    +0.001 A 
ATOM     20  C   UNL     1       4.222   8.616 -20.369  0.00  0.00    +0.012 A 
ENDBRANCH   2  15
BRANCH   1  22
ATOM     21  C   UNL     1       7.541   7.965 -22.456  0.00  0.00    +0.277 C 
ATOM     22  O   UNL     1       6.716   7.413 -21.617  0.00  0.00    -0.488 OA
ENDBRANCH   1  22
TORSDOF 2
ENDMDL
MODEL 7
REMARK VINA RESULT:    -7.496      4.249      5.773
REMARK INTER + INTRA:          -7.806
REMARK INTER:                  -8.018
REMARK INTRA:                   0.212
REMARK UNBOUND:                 0.567
REMARK  Name = ZINC000000039119
REMARK  3 active torsions:
REMARK  status: ('A' for Active; 'I' for Inactive)
REMARK    1  A    between atoms: C_1  and  O_2
REMARK    2  A    between atoms: O_2  and  C_3
REMARK    3  A    between atoms: C_4  and  C_5
REMARK                            x       y       z     vdW  Elec       q    Type
REMARK                         _______ _______ _______ _____ _____    ______ ____
ROOT
ATOM      1  C   UNL     1       4.126   3.363 -23.601  0.00  0.00    +0.211 A 
ATOM      2  C   UNL     1       3.171   4.228 -23.429  0.00  0.00    +0.181 A 
ATOM      3  O   UNL     1       3.437   5.398 -22.926  0.00  0.00    -0.450 OA
ATOM      4  C   UNL     1       4.657   5.702 -22.595  0.00  0.00    +0.150 A 
ATOM      5  C   UNL     1       5.611   4.835 -22.768  0.00  0.00    +0.069 A 
ATOM      6  C   UNL     1       6.831   5.139 -22.438  0.00  0.00    +0.019 A 
ATOM      7  C   UNL     1       7.097   6.309 -21.935  0.00  0.00    +0.048 A 
ATOM      8  C   UNL     1       6.143   7.174 -21.763  0.00  0.00    +0.138 A 
ATOM      9  O   UNL     1       6.142   8.385 -21.290  0.00  0.00    -0.463 OA
ATOM     10  C   UNL     1       4.920   8.830 -21.328  0.00  0.00    +0.196 A 
ATOM     11  C   UNL     1       4.167   7.894 -21.825  0.00  0.00    +0.053 A 
ATOM     12  C   UNL     1       4.923   6.871 -22.093  0.00  0.00    +0.063 A 
ATOM     13  C   UNL     1       5.347   3.667 -23.270  0.00  0.00    +0.235 A 
ATOM     14  O   UNL     1       6.300   2.801 -23.443  0.00  0.00    -0.283 OA
ENDROOT
BRANCH   2  15
ATOM     15  C   UNL     1       1.951   3.925 -23.759  0.00  0.00    +0.021 A 
ATOM     16  C   UNL     1       1.135   3.448 -22.867  0.00  0.00    +0.012 A 
ATOM     17  C   UNL     1      -0.085   3.145 -23.197  0.00  0.00    +0.001 A 
ATOM     18  C   UNL     1      -0.489   3.317 -24.420  0.00  0.00    +0.000 A 
ATOM     19  C   UNL     1       0.327   3.794 -25.313  0.00  0.00    +0.001 A 
ATOM     20  C   UNL     1       1.547   4.098 -24.982  0.00  0.00    +0.012 A 
ENDBRANCH   2  15
BRANCH   1  22
ATOM     21  C   UNL     1       3.811   1.150 -23.331  0.00  0.00    +0.277 C 
ATOM     22  O   UNL     1       3.860   2.193 -24.104  0.00  0.00    -0.488 OA
ENDBRANCH   1  22
TORSDOF 2
ENDMDL
