MODEL 1
REMARK VINA RESULT:    -9.468      0.000      0.000
REMARK INTER + INTRA:          -3.280
REMARK INTER:                 -11.148
REMARK INTRA:                   7.868
REMARK UNBOUND:                 8.402
REMARK  Name = COC(=O)[C@@]12Oc3c(OC)ccc4c3[C@@]13CCN(C)[C@@H](C4)C3=CC=C2OC        ZINC000253505182
REMARK  8 active torsions:
REMARK  status: ('A' for Active; 'I' for Inactive)
REMARK    1  A    between atoms: C_1  and  O_2
REMARK    2  A    between atoms: O_2  and  C_3
REMARK    3  A    between atoms: C_3  and  C_5
REMARK    4  A    between atoms: C_8  and  O_9
REMARK    5  A    between atoms: O_9  and  C_10
REMARK    6  A    between atoms: N_18  and  C_19
REMARK    7  A    between atoms: C_25  and  O_26
REMARK    8  A    between atoms: O_26  and  C_27
REMARK                            x       y       z     vdW  Elec       q    Type
REMARK                         _______ _______ _______ _____ _____    ______ ____
ROOT
ATOM      1  C   UNL     1      -2.684   3.046 -22.720  0.00  0.00    +0.275 C 
ATOM      2  O   UNL     1      -1.565   2.665 -21.764  0.00  0.00    -0.461 OA
ATOM      3  C   UNL     1      -0.211   2.558 -22.430  0.00  0.00    +0.169 A 
ATOM      4  C   UNL     1       1.033   2.312 -22.281  0.00  0.00    +0.162 A 
ATOM      5  C   UNL     1       1.810   2.372 -23.290  0.00  0.00    +0.050 A 
ATOM      6  C   UNL     1       1.358   2.672 -24.428  0.00  0.00    +0.008 A 
ATOM      7  C   UNL     1       0.127   2.915 -24.573  0.00  0.00    -0.034 A 
ATOM      8  C   UNL     1      -0.336   3.220 -25.729  0.00  0.00    +0.094 C 
ATOM      9  C   UNL     1      -1.564   3.462 -25.872  0.00  0.00    +0.096 C 
ATOM     10  C   UNL     1      -2.344   3.403 -24.864  0.00  0.00    -0.006 C 
ATOM     11  C   UNL     1      -3.585   3.648 -25.012  0.00  0.00    +0.009 C 
ATOM     12  C   UNL     1      -4.362   3.591 -24.021  0.00  0.00    +0.046 C 
ATOM     13  N   UNL     1      -2.943   3.756 -26.144  0.00  0.00    +0.239 N 
ATOM     14  H   UNL     1      -3.275   3.995 -27.078  0.00  0.00    +0.204 HD
ATOM     15  C   UNL     1      -3.338   4.050 -27.303  0.00  0.00    +0.191 C 
ATOM     16  C   UNL     1      -3.840   3.699 -25.044  0.00  0.00    +0.133 C 
ATOM     17  C   UNL     1      -3.301   3.358 -23.773  0.00  0.00    +0.072 C 
ATOM     18  C   UNL     1      -0.663   2.860 -23.580  0.00  0.00    +0.017 A 
ATOM     19  C   UNL     1      -3.912   3.289 -22.869  0.00  0.00    +0.153 C 
ATOM     20  C   UNL     1      -1.890   3.103 -23.728  0.00  0.00    +0.088 C 
ENDROOT
BRANCH   1  21
ATOM     21  C   UNL     1      -3.111   2.872 -21.441  0.00  0.00    +0.360 C 
ATOM     22  O   UNL     1      -3.455   1.868 -21.034  0.00  0.00    -0.246 OA
BRANCH  21  24
ATOM     23  C   UNL     1      -3.261   3.646 -19.390  0.00  0.00    +0.280 C 
ATOM     24  O   UNL     1      -3.156   3.825 -20.603  0.00  0.00    -0.465 OA
ENDBRANCH  21  24
ENDBRANCH   1  21
BRANCH   4  25
ATOM     25  O   UNL     1       1.488   2.012 -21.145  0.00  0.00    -0.491 OA
ATOM     26  C   UNL     1       2.644   1.519 -21.038  0.00  0.00    +0.277 C 
ENDBRANCH   4  25
BRANCH  19  27
ATOM     27  O   UNL     1      -4.708   3.251 -21.958  0.00  0.00    -0.495 OA
ATOM     28  C   UNL     1      -5.934   3.266 -22.229  0.00  0.00    +0.276 C 
ENDBRANCH  19  27
TORSDOF 4
ENDMDL
MODEL 2
REMARK VINA RESULT:    -9.326      1.172      4.350
REMARK INTER + INTRA:          -3.104
REMARK INTER:                 -11.007
REMARK INTRA:                   7.903
REMARK UNBOUND:                 8.402
REMARK  Name = COC(=O)[C@@]12Oc3c(OC)ccc4c3[C@@]13CCN(C)[C@@H](C4)C3=CC=C2OC        ZINC000253505182
REMARK  8 active torsions:
REMARK  status: ('A' for Active; 'I' for Inactive)
REMARK    1  A    between atoms: C_1  and  O_2
REMARK    2  A    between atoms: O_2  and  C_3
REMARK    3  A    between atoms: C_3  and  C_5
REMARK    4  A    between atoms: C_8  and  O_9
REMARK    5  A    between atoms: O_9  and  C_10
REMARK    6  A    between atoms: N_18  and  C_19
REMARK    7  A    between atoms: C_25  and  O_26
REMARK    8  A    between atoms: O_26  and  C_27
REMARK                            x       y       z     vdW  Elec       q    Type
REMARK                         _______ _______ _______ _____ _____    ______ ____
ROOT
ATOM      1  C   UNL     1      -1.536   3.185 -23.853  0.00  0.00    +0.275 C 
ATOM      2  O   UNL     1      -1.852   3.050 -22.372  0.00  0.00    -0.461 OA
ATOM      3  C   UNL     1      -3.330   3.139 -22.059  0.00  0.00    +0.169 A 
ATOM      4  C   UNL     1      -4.230   3.115 -21.155  0.00  0.00    +0.162 A 
ATOM      5  C   UNL     1      -5.455   3.253 -21.484  0.00  0.00    +0.050 A 
ATOM      6  C   UNL     1      -5.778   3.411 -22.693  0.00  0.00    +0.008 A 
ATOM      7  C   UNL     1      -4.885   3.434 -23.585  0.00  0.00    -0.034 A 
ATOM      8  C   UNL     1      -5.210   3.594 -24.815  0.00  0.00    +0.094 C 
ATOM      9  C   UNL     1      -4.319   3.617 -25.705  0.00  0.00    +0.096 C 
ATOM     10  C   UNL     1      -3.094   3.480 -25.379  0.00  0.00    -0.006 C 
ATOM     11  C   UNL     1      -2.195   3.504 -26.280  0.00  0.00    +0.009 C 
ATOM     12  C   UNL     1      -0.981   3.369 -25.966  0.00  0.00    +0.046 C 
ATOM     13  N   UNL     1      -3.384   3.658 -26.795  0.00  0.00    +0.239 N 
ATOM     14  H   UNL     1      -3.681   3.788 -27.762  0.00  0.00    +0.204 HD
ATOM     15  C   UNL     1      -3.766   3.819 -27.984  0.00  0.00    +0.191 C 
ATOM     16  C   UNL     1      -2.011   3.509 -26.468  0.00  0.00    +0.133 C 
ATOM     17  C   UNL     1      -1.676   3.332 -25.096  0.00  0.00    +0.072 C 
ATOM     18  C   UNL     1      -3.660   3.299 -23.278  0.00  0.00    +0.017 A 
ATOM     19  C   UNL     1      -0.647   3.209 -24.748  0.00  0.00    +0.153 C 
ATOM     20  C   UNL     1      -2.772   3.322 -24.171  0.00  0.00    +0.088 C 
ENDROOT
BRANCH   1  21
ATOM     21  C   UNL     1      -0.428   3.010 -23.084  0.00  0.00    +0.360 C 
ATOM     22  O   UNL     1       0.159   3.875 -22.638  0.00  0.00    -0.246 OA
BRANCH  21  24
ATOM     23  C   UNL     1       0.664   1.621 -21.778  0.00  0.00    +0.280 C 
ATOM     24  O   UNL     1       0.033   1.860 -22.808  0.00  0.00    -0.465 OA
ENDBRANCH  21  24
ENDBRANCH   1  21
BRANCH   4  25
ATOM     25  O   UNL     1      -3.911   2.958 -19.946  0.00  0.00    -0.491 OA
ATOM     26  C   UNL     1      -3.058   3.718 -19.414  0.00  0.00    +0.277 C 
ENDBRANCH   4  25
BRANCH  19  27
ATOM     27  O   UNL     1       0.533   3.085 -24.510  0.00  0.00    -0.495 OA
ATOM     28  C   UNL     1       1.336   3.011 -25.472  0.00  0.00    +0.276 C 
ENDBRANCH  19  27
TORSDOF 4
ENDMDL
MODEL 3
REMARK VINA RESULT:    -8.879      1.280      4.389
REMARK INTER + INTRA:          -2.553
REMARK INTER:                 -11.068
REMARK INTRA:                   8.515
REMARK UNBOUND:                 8.402
REMARK  Name = COC(=O)[C@@]12Oc3c(OC)ccc4c3[C@@]13CCN(C)[C@@H](C4)C3=CC=C2OC        ZINC000253505182
REMARK  8 active torsions:
REMARK  status: ('A' for Active; 'I' for Inactive)
REMARK    1  A    between atoms: C_1  and  O_2
REMARK    2  A    between atoms: O_2  and  C_3
REMARK    3  A    between atoms: C_3  and  C_5
REMARK    4  A    between atoms: C_8  and  O_9
REMARK    5  A    between atoms: O_9  and  C_10
REMARK    6  A    between atoms: N_18  and  C_19
REMARK    7  A    between atoms: C_25  and  O_26
REMARK    8  A    between atoms: O_26  and  C_27
REMARK                            x       y       z     vdW  Elec       q    Type
REMARK                         _______ _______ _______ _____ _____    ______ ____
ROOT
ATOM      1  C   UNL     1      -1.612   2.630 -22.483  0.00  0.00    +0.275 C 
ATOM      2  O   UNL     1      -3.096   2.878 -22.267  0.00  0.00    -0.461 OA
ATOM      3  C   UNL     1      -3.813   3.376 -23.503  0.00  0.00    +0.169 A 
ATOM      4  C   UNL     1      -4.921   3.750 -24.013  0.00  0.00    +0.162 A 
ATOM      5  C   UNL     1      -4.961   4.103 -25.238  0.00  0.00    +0.050 A 
ATOM      6  C   UNL     1      -3.916   4.084 -25.943  0.00  0.00    +0.008 A 
ATOM      7  C   UNL     1      -2.821   3.713 -25.436  0.00  0.00    -0.034 A 
ATOM      8  C   UNL     1      -1.756   3.693 -26.150  0.00  0.00    +0.094 C 
ATOM      9  C   UNL     1      -0.664   3.323 -25.643  0.00  0.00    +0.096 C 
ATOM     10  C   UNL     1      -0.621   2.969 -24.418  0.00  0.00    -0.006 C 
ATOM     11  C   UNL     1       0.484   2.595 -23.908  0.00  0.00    +0.009 C 
ATOM     12  C   UNL     1       0.535   2.244 -22.698  0.00  0.00    +0.046 C 
ATOM     13  N   UNL     1       0.629   2.919 -25.165  0.00  0.00    +0.239 N 
ATOM     14  H   UNL     1       1.454   2.915 -25.763  0.00  0.00    +0.204 HD
ATOM     15  C   UNL     1       1.639   2.920 -25.916  0.00  0.00    +0.191 C 
ATOM     16  C   UNL     1       0.713   2.518 -23.805  0.00  0.00    +0.133 C 
ATOM     17  C   UNL     1      -0.482   2.550 -23.034  0.00  0.00    +0.072 C 
ATOM     18  C   UNL     1      -2.760   3.358 -24.218  0.00  0.00    +0.017 A 
ATOM     19  C   UNL     1      -0.516   2.260 -21.980  0.00  0.00    +0.153 C 
ATOM     20  C   UNL     1      -1.666   2.988 -23.715  0.00  0.00    +0.088 C 
ENDROOT
BRANCH   1  21
ATOM     21  C   UNL     1      -2.019   2.358 -21.215  0.00  0.00    +0.360 C 
ATOM     22  O   UNL     1      -2.374   1.329 -20.886  0.00  0.00    -0.246 OA
BRANCH  21  24
ATOM     23  C   UNL     1      -3.071   3.737 -19.866  0.00  0.00    +0.280 C 
ATOM     24  O   UNL     1      -2.033   3.239 -20.301  0.00  0.00    -0.465 OA
ENDBRANCH  21  24
ENDBRANCH   1  21
BRANCH   4  25
ATOM     25  O   UNL     1      -5.967   3.770 -23.312  0.00  0.00    -0.491 OA
ATOM     26  C   UNL     1      -5.994   3.176 -22.200  0.00  0.00    +0.277 C 
ENDBRANCH   4  25
BRANCH  19  27
ATOM     27  O   UNL     1      -0.403   1.912 -20.827  0.00  0.00    -0.495 OA
ATOM     28  C   UNL     1       0.720   1.518 -20.425  0.00  0.00    +0.276 C 
ENDBRANCH  19  27
TORSDOF 4
ENDMDL
MODEL 4
REMARK VINA RESULT:    -8.520      2.129      5.434
REMARK INTER + INTRA:          -2.110
REMARK INTER:                 -10.103
REMARK INTRA:                   7.992
REMARK UNBOUND:                 8.402
REMARK  Name = COC(=O)[C@@]12Oc3c(OC)ccc4c3[C@@]13CCN(C)[C@@H](C4)C3=CC=C2OC        ZINC000253505182
REMARK  8 active torsions:
REMARK  status: ('A' for Active; 'I' for Inactive)
REMARK    1  A    between atoms: C_1  and  O_2
REMARK    2  A    between atoms: O_2  and  C_3
REMARK    3  A    between atoms: C_3  and  C_5
REMARK    4  A    between atoms: C_8  and  O_9
REMARK    5  A    between atoms: O_9  and  C_10
REMARK    6  A    between atoms: N_18  and  C_19
REMARK    7  A    between atoms: C_25  and  O_26
REMARK    8  A    between atoms: O_26  and  C_27
REMARK                            x       y       z     vdW  Elec       q    Type
REMARK                         _______ _______ _______ _____ _____    ______ ____
ROOT
ATOM      1  C   UNL     1      -1.194   2.935 -23.321  0.00  0.00    +0.275 C 
ATOM      2  O   UNL     1      -1.273   3.130 -24.827  0.00  0.00    -0.461 OA
ATOM      3  C   UNL     1      -2.674   3.410 -25.327  0.00  0.00    +0.169 A 
ATOM      4  C   UNL     1      -3.415   3.649 -26.338  0.00  0.00    +0.162 A 
ATOM      5  C   UNL     1      -4.667   3.824 -26.171  0.00  0.00    +0.050 A 
ATOM      6  C   UNL     1      -5.173   3.763 -25.017  0.00  0.00    +0.008 A 
ATOM      7  C   UNL     1      -4.437   3.526 -24.019  0.00  0.00    -0.034 A 
ATOM      8  C   UNL     1      -4.947   3.463 -22.844  0.00  0.00    +0.094 C 
ATOM      9  C   UNL     1      -4.213   3.227 -21.849  0.00  0.00    +0.096 C 
ATOM     10  C   UNL     1      -2.960   3.052 -22.014  0.00  0.00    -0.006 C 
ATOM     11  C   UNL     1      -2.219   2.813 -21.006  0.00  0.00    +0.009 C 
ATOM     12  C   UNL     1      -0.979   2.639 -21.159  0.00  0.00    +0.046 C 
ATOM     13  N   UNL     1      -3.466   2.965 -20.650  0.00  0.00    +0.239 N 
ATOM     14  H   UNL     1      -3.907   2.922 -19.732  0.00  0.00    +0.204 HD
ATOM     15  C   UNL     1      -4.026   2.916 -19.523  0.00  0.00    +0.191 C 
ATOM     16  C   UNL     1      -2.068   2.764 -20.797  0.00  0.00    +0.133 C 
ATOM     17  C   UNL     1      -1.526   2.839 -22.110  0.00  0.00    +0.072 C 
ATOM     18  C   UNL     1      -3.188   3.349 -24.164  0.00  0.00    +0.017 A 
ATOM     19  C   UNL     1      -0.462   2.699 -22.321  0.00  0.00    +0.153 C 
ATOM     20  C   UNL     1      -2.456   3.113 -23.167  0.00  0.00    +0.088 C 
ENDROOT
BRANCH   1  21
ATOM     21  C   UNL     1       0.012   2.822 -23.939  0.00  0.00    +0.360 C 
ATOM     22  O   UNL     1       0.447   1.825 -24.270  0.00  0.00    -0.246 OA
BRANCH  21  24
ATOM     23  C   UNL     1       1.574   3.840 -25.100  0.00  0.00    +0.280 C 
ATOM     24  O   UNL     1       0.744   3.828 -24.191  0.00  0.00    -0.465 OA
ENDBRANCH  21  24
ENDBRANCH   1  21
BRANCH   4  25
ATOM     25  O   UNL     1      -2.914   3.711 -27.492  0.00  0.00    -0.491 OA
ATOM     26  C   UNL     1      -3.583   3.336 -28.493  0.00  0.00    +0.277 C 
ENDBRANCH   4  25
BRANCH  19  27
ATOM     27  O   UNL     1       0.732   2.523 -22.404  0.00  0.00    -0.495 OA
ATOM     28  C   UNL     1       1.300   1.829 -21.524  0.00  0.00    +0.276 C 
ENDBRANCH  19  27
TORSDOF 4
ENDMDL
MODEL 5
REMARK VINA RESULT:    -8.514      2.231      3.934
REMARK INTER + INTRA:          -2.103
REMARK INTER:                 -10.285
REMARK INTRA:                   8.181
REMARK UNBOUND:                 8.402
REMARK  Name = COC(=O)[C@@]12Oc3c(OC)ccc4c3[C@@]13CCN(C)[C@@H](C4)C3=CC=C2OC        ZINC000253505182
REMARK  8 active torsions:
REMARK  status: ('A' for Active; 'I' for Inactive)
REMARK    1  A    between atoms: C_1  and  O_2
REMARK    2  A    between atoms: O_2  and  C_3
REMARK    3  A    between atoms: C_3  and  C_5
REMARK    4  A    between atoms: C_8  and  O_9
REMARK    5  A    between atoms: O_9  and  C_10
REMARK    6  A    between atoms: N_18  and  C_19
REMARK    7  A    between atoms: C_25  and  O_26
REMARK    8  A    between atoms: O_26  and  C_27
REMARK                            x       y       z     vdW  Elec       q    Type
REMARK                         _______ _______ _______ _____ _____    ______ ____
ROOT
ATOM      1  C   UNL     1      -2.917   3.476 -24.148  0.00  0.00    +0.275 C 
ATOM      2  O   UNL     1      -1.668   3.473 -25.017  0.00  0.00    -0.461 OA
ATOM      3  C   UNL     1      -0.429   2.995 -24.292  0.00  0.00    +0.169 A 
ATOM      4  C   UNL     1       0.822   2.754 -24.367  0.00  0.00    +0.162 A 
ATOM      5  C   UNL     1       1.440   2.316 -23.341  0.00  0.00    +0.050 A 
ATOM      6  C   UNL     1       0.824   2.122 -22.258  0.00  0.00    +0.008 A 
ATOM      7  C   UNL     1      -0.414   2.362 -22.187  0.00  0.00    -0.034 A 
ATOM      8  C   UNL     1      -1.044   2.165 -21.088  0.00  0.00    +0.094 C 
ATOM      9  C   UNL     1      -2.278   2.404 -21.016  0.00  0.00    +0.096 C 
ATOM     10  C   UNL     1      -2.899   2.842 -22.042  0.00  0.00    -0.006 C 
ATOM     11  C   UNL     1      -4.148   3.083 -21.967  0.00  0.00    +0.009 C 
ATOM     12  C   UNL     1      -4.769   3.516 -22.976  0.00  0.00    +0.046 C 
ATOM     13  N   UNL     1      -3.682   2.644 -20.829  0.00  0.00    +0.239 N 
ATOM     14  H   UNL     1      -4.149   2.476 -19.939  0.00  0.00    +0.204 HD
ATOM     15  C   UNL     1      -4.245   2.432 -19.723  0.00  0.00    +0.191 C 
ATOM     16  C   UNL     1      -4.405   3.132 -21.950  0.00  0.00    +0.133 C 
ATOM     17  C   UNL     1      -3.683   3.341 -23.158  0.00  0.00    +0.072 C 
ATOM     18  C   UNL     1      -1.048   2.798 -23.197  0.00  0.00    +0.017 A 
ATOM     19  C   UNL     1      -4.153   3.714 -24.072  0.00  0.00    +0.153 C 
ATOM     20  C   UNL     1      -2.282   3.035 -23.123  0.00  0.00    +0.088 C 
ENDROOT
BRANCH   1  21
ATOM     21  C   UNL     1      -3.148   3.905 -25.418  0.00  0.00    +0.360 C 
ATOM     22  O   UNL     1      -3.323   4.997 -25.680  0.00  0.00    -0.246 OA
BRANCH  21  24
ATOM     23  C   UNL     1      -3.259   3.497 -27.574  0.00  0.00    +0.280 C 
ATOM     24  O   UNL     1      -3.186   3.111 -26.407  0.00  0.00    -0.465 OA
ENDBRANCH  21  24
ENDBRANCH   1  21
BRANCH   4  25
ATOM     25  O   UNL     1       1.441   2.947 -25.448  0.00  0.00    -0.491 OA
ATOM     26  C   UNL     1       2.151   2.029 -25.942  0.00  0.00    +0.277 C 
ENDBRANCH   4  25
BRANCH  19  27
ATOM     27  O   UNL     1      -4.803   4.130 -25.004  0.00  0.00    -0.495 OA
ATOM     28  C   UNL     1      -5.995   3.751 -25.122  0.00  0.00    +0.276 C 
ENDBRANCH  19  27
TORSDOF 4
ENDMDL
MODEL 6
REMARK VINA RESULT:    -7.920      3.121      6.875
REMARK INTER + INTRA:          -1.370
REMARK INTER:                 -10.548
REMARK INTRA:                   9.179
REMARK UNBOUND:                 8.402
REMARK  Name = COC(=O)[C@@]12Oc3c(OC)ccc4c3[C@@]13CCN(C)[C@@H](C4)C3=CC=C2OC        ZINC000253505182
REMARK  8 active torsions:
REMARK  status: ('A' for Active; 'I' for Inactive)
REMARK    1  A    between atoms: C_1  and  O_2
REMARK    2  A    between atoms: O_2  and  C_3
REMARK    3  A    between atoms: C_3  and  C_5
REMARK    4  A    between atoms: C_8  and  O_9
REMARK    5  A    between atoms: O_9  and  C_10
REMARK    6  A    between atoms: N_18  and  C_19
REMARK    7  A    between atoms: C_25  and  O_26
REMARK    8  A    between atoms: O_26  and  C_27
REMARK                            x       y       z     vdW  Elec       q    Type
REMARK                         _______ _______ _______ _____ _____    ______ ____
ROOT
ATOM      1  C   UNL     1       3.047   2.138 -22.877  0.00  0.00    +0.275 C 
ATOM      2  O   UNL     1       1.626   1.657 -23.124  0.00  0.00    -0.461 OA
ATOM      3  C   UNL     1       0.639   2.781 -23.351  0.00  0.00    +0.169 A 
ATOM      4  C   UNL     1      -0.573   3.102 -23.590  0.00  0.00    +0.162 A 
ATOM      5  C   UNL     1      -0.888   4.333 -23.695  0.00  0.00    +0.050 A 
ATOM      6  C   UNL     1      -0.012   5.230 -23.565  0.00  0.00    +0.008 A 
ATOM      7  C   UNL     1       1.187   4.910 -23.329  0.00  0.00    -0.034 A 
ATOM      8  C   UNL     1       2.080   5.820 -23.196  0.00  0.00    +0.094 C 
ATOM      9  C   UNL     1       3.276   5.500 -22.960  0.00  0.00    +0.096 C 
ATOM     10  C   UNL     1       3.593   4.269 -22.855  0.00  0.00    -0.006 C 
ATOM     11  C   UNL     1       4.802   3.948 -22.617  0.00  0.00    +0.009 C 
ATOM     12  C   UNL     1       5.125   2.734 -22.511  0.00  0.00    +0.046 C 
ATOM     13  N   UNL     1       4.663   5.244 -22.691  0.00  0.00    +0.239 N 
ATOM     14  H   UNL     1       5.346   5.995 -22.592  0.00  0.00    +0.204 HD
ATOM     15  C   UNL     1       5.495   6.182 -22.571  0.00  0.00    +0.191 C 
ATOM     16  C   UNL     1       5.052   3.884 -22.567  0.00  0.00    +0.133 C 
ATOM     17  C   UNL     1       4.042   2.894 -22.719  0.00  0.00    +0.072 C 
ATOM     18  C   UNL     1       1.520   3.690 -23.221  0.00  0.00    +0.017 A 
ATOM     19  C   UNL     1       4.245   1.823 -22.641  0.00  0.00    +0.153 C 
ATOM     20  C   UNL     1       2.716   3.374 -22.985  0.00  0.00    +0.088 C 
ENDROOT
BRANCH   1  21
ATOM     21  C   UNL     1       2.929   0.784 -22.848  0.00  0.00    +0.360 C 
ATOM     22  O   UNL     1       2.730   0.200 -21.893  0.00  0.00    -0.246 OA
BRANCH  21  24
ATOM     23  C   UNL     1       2.959   0.533 -25.031  0.00  0.00    +0.280 C 
ATOM     24  O   UNL     1       3.033   0.070 -23.892  0.00  0.00    -0.465 OA
ENDBRANCH  21  24
ENDBRANCH   1  21
BRANCH   4  25
ATOM     25  O   UNL     1      -1.452   2.208 -23.721  0.00  0.00    -0.491 OA
ATOM     26  C   UNL     1      -2.583   2.498 -24.197  0.00  0.00    +0.277 C 
ENDBRANCH   4  25
BRANCH  19  27
ATOM     27  O   UNL     1       4.616   0.676 -22.529  0.00  0.00    -0.495 OA
ATOM     28  C   UNL     1       5.646   0.441 -21.848  0.00  0.00    +0.276 C 
ENDBRANCH  19  27
TORSDOF 4
ENDMDL
MODEL 7
REMARK VINA RESULT:    -7.719      5.561      8.623
REMARK INTER + INTRA:          -1.122
REMARK INTER:                  -9.000
REMARK INTRA:                   7.878
REMARK UNBOUND:                 8.402
REMARK  Name = COC(=O)[C@@]12Oc3c(OC)ccc4c3[C@@]13CCN(C)[C@@H](C4)C3=CC=C2OC        ZINC000253505182
REMARK  8 active torsions:
REMARK  status: ('A' for Active; 'I' for Inactive)
REMARK    1  A    between atoms: C_1  and  O_2
REMARK    2  A    between atoms: O_2  and  C_3
REMARK    3  A    between atoms: C_3  and  C_5
REMARK    4  A    between atoms: C_8  and  O_9
REMARK    5  A    between atoms: O_9  and  C_10
REMARK    6  A    between atoms: N_18  and  C_19
REMARK    7  A    between atoms: C_25  and  O_26
REMARK    8  A    between atoms: O_26  and  C_27
REMARK                            x       y       z     vdW  Elec       q    Type
REMARK                         _______ _______ _______ _____ _____    ______ ____
ROOT
ATOM      1  C   UNL     1       4.942   6.429 -22.275  0.00  0.00    +0.275 C 
ATOM      2  O   UNL     1       3.437   6.628 -22.356  0.00  0.00    -0.461 OA
ATOM      3  C   UNL     1       2.704   5.455 -22.969  0.00  0.00    +0.169 A 
ATOM      4  C   UNL     1       1.577   4.968 -23.317  0.00  0.00    +0.162 A 
ATOM      5  C   UNL     1       1.530   3.809 -23.847  0.00  0.00    +0.050 A 
ATOM      6  C   UNL     1       2.587   3.146 -24.027  0.00  0.00    +0.008 A 
ATOM      7  C   UNL     1       3.701   3.630 -23.682  0.00  0.00    -0.034 A 
ATOM      8  C   UNL     1       4.778   2.959 -23.864  0.00  0.00    +0.094 C 
ATOM      9  C   UNL     1       5.889   3.442 -23.519  0.00  0.00    +0.096 C 
ATOM     10  C   UNL     1       5.938   4.602 -22.989  0.00  0.00    -0.006 C 
ATOM     11  C   UNL     1       7.062   5.089 -22.642  0.00  0.00    +0.009 C 
ATOM     12  C   UNL     1       7.120   6.234 -22.117  0.00  0.00    +0.046 C 
ATOM     13  N   UNL     1       7.203   3.900 -23.163  0.00  0.00    +0.239 N 
ATOM     14  H   UNL     1       8.038   3.337 -23.324  0.00  0.00    +0.204 HD
ATOM     15  C   UNL     1       8.225   3.193 -23.368  0.00  0.00    +0.191 C 
ATOM     16  C   UNL     1       7.295   5.188 -22.571  0.00  0.00    +0.133 C 
ATOM     17  C   UNL     1       6.086   5.912 -22.380  0.00  0.00    +0.072 C 
ATOM     18  C   UNL     1       3.768   4.783 -23.153  0.00  0.00    +0.017 A 
ATOM     19  C   UNL     1       6.056   6.909 -21.932  0.00  0.00    +0.153 C 
ATOM     20  C   UNL     1       4.881   5.263 -22.810  0.00  0.00    +0.088 C 
ENDROOT
BRANCH   1  21
ATOM     21  C   UNL     1       4.535   7.628 -21.779  0.00  0.00    +0.360 C 
ATOM     22  O   UNL     1       4.258   7.785 -20.688  0.00  0.00    -0.246 OA
BRANCH  21  24
ATOM     23  C   UNL     1       3.893   9.702 -22.118  0.00  0.00    +0.280 C 
ATOM     24  O   UNL     1       4.433   8.665 -22.504  0.00  0.00    -0.465 OA
ENDBRANCH  21  24
ENDBRANCH   1  21
BRANCH   4  25
ATOM     25  O   UNL     1       0.518   5.628 -23.138  0.00  0.00    -0.491 OA
ATOM     26  C   UNL     1      -0.604   5.060 -23.230  0.00  0.00    +0.277 C 
ENDBRANCH   4  25
BRANCH  19  27
ATOM     27  O   UNL     1       6.176   8.001 -21.425  0.00  0.00    -0.495 OA
ATOM     28  C   UNL     1       7.318   8.368 -21.050  0.00  0.00    +0.276 C 
ENDBRANCH  19  27
TORSDOF 4
ENDMDL
MODEL 8
REMARK VINA RESULT:    -7.469      2.733      4.670
REMARK INTER + INTRA:          -0.814
REMARK INTER:                  -9.571
REMARK INTRA:                   8.757
REMARK UNBOUND:                 8.402
REMARK  Name = COC(=O)[C@@]12Oc3c(OC)ccc4c3[C@@]13CCN(C)[C@@H](C4)C3=CC=C2OC        ZINC000253505182
REMARK  8 active torsions:
REMARK  status: ('A' for Active; 'I' for Inactive)
REMARK    1  A    between atoms: C_1  and  O_2
REMARK    2  A    between atoms: O_2  and  C_3
REMARK    3  A    between atoms: C_3  and  C_5
REMARK    4  A    between atoms: C_8  and  O_9
REMARK    5  A    between atoms: O_9  and  C_10
REMARK    6  A    between atoms: N_18  and  C_19
REMARK    7  A    between atoms: C_25  and  O_26
REMARK    8  A    between atoms: O_26  and  C_27
REMARK                            x       y       z     vdW  Elec       q    Type
REMARK                         _______ _______ _______ _____ _____    ______ ____
ROOT
ATOM      1  C   UNL     1       0.446   2.969 -24.062  0.00  0.00    +0.275 C 
ATOM      2  O   UNL     1       1.961   2.971 -24.193  0.00  0.00    -0.461 OA
ATOM      3  C   UNL     1       2.674   2.433 -22.972  0.00  0.00    +0.169 A 
ATOM      4  C   UNL     1       3.795   2.164 -22.426  0.00  0.00    +0.162 A 
ATOM      5  C   UNL     1       3.819   1.669 -21.251  0.00  0.00    +0.050 A 
ATOM      6  C   UNL     1       2.745   1.445 -20.630  0.00  0.00    +0.008 A 
ATOM      7  C   UNL     1       1.637   1.712 -21.172  0.00  0.00    -0.034 A 
ATOM      8  C   UNL     1       0.543   1.486 -20.544  0.00  0.00    +0.094 C 
ATOM      9  C   UNL     1      -0.563   1.752 -21.085  0.00  0.00    +0.096 C 
ATOM     10  C   UNL     1      -0.590   2.247 -22.260  0.00  0.00    -0.006 C 
ATOM     11  C   UNL     1      -1.709   2.516 -22.806  0.00  0.00    +0.009 C 
ATOM     12  C   UNL     1      -1.744   3.006 -23.968  0.00  0.00    +0.046 C 
ATOM     13  N   UNL     1      -1.873   2.019 -21.610  0.00  0.00    +0.239 N 
ATOM     14  H   UNL     1      -2.722   1.825 -21.080  0.00  0.00    +0.204 HD
ATOM     15  C   UNL     1      -2.913   1.774 -20.943  0.00  0.00    +0.191 C 
ATOM     16  C   UNL     1      -1.940   2.571 -22.917  0.00  0.00    +0.133 C 
ATOM     17  C   UNL     1      -0.712   2.813 -23.593  0.00  0.00    +0.072 C 
ATOM     18  C   UNL     1       1.592   2.205 -22.341  0.00  0.00    +0.017 A 
ATOM     19  C   UNL     1      -0.663   3.235 -24.600  0.00  0.00    +0.153 C 
ATOM     20  C   UNL     1       0.485   2.471 -22.880  0.00  0.00    +0.088 C 
ENDROOT
BRANCH   1  21
ATOM     21  C   UNL     1       0.878   3.457 -25.256  0.00  0.00    +0.360 C 
ATOM     22  O   UNL     1       1.071   4.562 -25.441  0.00  0.00    -0.246 OA
BRANCH  21  24
ATOM     23  C   UNL     1       1.943   1.810 -26.248  0.00  0.00    +0.280 C 
ATOM     24  O   UNL     1       1.099   2.707 -26.256  0.00  0.00    -0.465 OA
ENDBRANCH  21  24
ENDBRANCH   1  21
BRANCH   4  25
ATOM     25  O   UNL     1       4.871   2.386 -23.044  0.00  0.00    -0.491 OA
ATOM     26  C   UNL     1       5.283   3.569 -23.190  0.00  0.00    +0.277 C 
ENDBRANCH   4  25
BRANCH  19  27
ATOM     27  O   UNL     1      -0.762   3.705 -25.711  0.00  0.00    -0.495 OA
ATOM     28  C   UNL     1      -1.874   3.645 -26.293  0.00  0.00    +0.276 C 
ENDBRANCH  19  27
TORSDOF 4
ENDMDL
MODEL 9
REMARK VINA RESULT:    -7.284      2.193      5.525
REMARK INTER + INTRA:          -0.585
REMARK INTER:                  -8.987
REMARK INTRA:                   8.402
REMARK UNBOUND:                 8.402
REMARK  Name = COC(=O)[C@@]12Oc3c(OC)ccc4c3[C@@]13CCN(C)[C@@H](C4)C3=CC=C2OC        ZINC000253505182
REMARK  8 active torsions:
REMARK  status: ('A' for Active; 'I' for Inactive)
REMARK    1  A    between atoms: C_1  and  O_2
REMARK    2  A    between atoms: O_2  and  C_3
REMARK    3  A    between atoms: C_3  and  C_5
REMARK    4  A    between atoms: C_8  and  O_9
REMARK    5  A    between atoms: O_9  and  C_10
REMARK    6  A    between atoms: N_18  and  C_19
REMARK    7  A    between atoms: C_25  and  O_26
REMARK    8  A    between atoms: O_26  and  C_27
REMARK                            x       y       z     vdW  Elec       q    Type
REMARK                         _______ _______ _______ _____ _____    ______ ____
ROOT
ATOM      1  C   UNL     1      -1.231   3.257 -23.934  0.00  0.00    +0.275 C 
ATOM      2  O   UNL     1      -2.713   3.593 -23.887  0.00  0.00    -0.461 OA
ATOM      3  C   UNL     1      -3.413   3.065 -22.654  0.00  0.00    +0.169 A 
ATOM      4  C   UNL     1      -4.512   2.970 -22.012  0.00  0.00    +0.162 A 
ATOM      5  C   UNL     1      -4.538   2.346 -20.900  0.00  0.00    +0.050 A 
ATOM      6  C   UNL     1      -3.489   1.825 -20.435  0.00  0.00    +0.008 A 
ATOM      7  C   UNL     1      -2.402   1.921 -21.072  0.00  0.00    -0.034 A 
ATOM      8  C   UNL     1      -1.333   1.392 -20.602  0.00  0.00    +0.094 C 
ATOM      9  C   UNL     1      -0.250   1.488 -21.238  0.00  0.00    +0.096 C 
ATOM     10  C   UNL     1      -0.221   2.112 -22.350  0.00  0.00    -0.006 C 
ATOM     11  C   UNL     1       0.875   2.207 -22.991  0.00  0.00    +0.009 C 
ATOM     12  C   UNL     1       0.912   2.822 -24.092  0.00  0.00    +0.046 C 
ATOM     13  N   UNL     1       1.033   1.539 -21.881  0.00  0.00    +0.239 N 
ATOM     14  H   UNL     1       1.863   1.106 -21.476  0.00  0.00    +0.204 HD
ATOM     15  C   UNL     1       2.049   0.999 -21.368  0.00  0.00    +0.191 C 
ATOM     16  C   UNL     1       1.102   2.226 -23.122  0.00  0.00    +0.133 C 
ATOM     17  C   UNL     1      -0.098   2.803 -23.622  0.00  0.00    +0.072 C 
ATOM     18  C   UNL     1      -2.356   2.538 -22.181  0.00  0.00    +0.017 A 
ATOM     19  C   UNL     1      -0.144   3.350 -24.567  0.00  0.00    +0.153 C 
ATOM     20  C   UNL     1      -1.271   2.632 -22.814  0.00  0.00    +0.088 C 
ENDROOT
BRANCH   1  21
ATOM     21  C   UNL     1      -1.652   3.972 -25.012  0.00  0.00    +0.360 C 
ATOM     22  O   UNL     1      -1.785   5.100 -24.993  0.00  0.00    -0.246 OA
BRANCH  21  24
ATOM     23  C   UNL     1      -3.042   3.485 -26.642  0.00  0.00    +0.280 C 
ATOM     24  O   UNL     1      -1.927   3.425 -26.125  0.00  0.00    -0.465 OA
ENDBRANCH  21  24
ENDBRANCH   1  21
BRANCH   4  25
ATOM     25  O   UNL     1      -5.563   3.489 -22.474  0.00  0.00    -0.491 OA
ATOM     26  C   UNL     1      -5.626   3.814 -23.690  0.00  0.00    +0.277 C 
ENDBRANCH   4  25
BRANCH  19  27
ATOM     27  O   UNL     1      -0.045   3.927 -25.627  0.00  0.00    -0.495 OA
ATOM     28  C   UNL     1       1.101   4.231 -26.041  0.00  0.00    +0.276 C 
ENDBRANCH  19  27
TORSDOF 4
ENDMDL
