MODEL 1
REMARK VINA RESULT:    -9.361      0.000      0.000
REMARK INTER + INTRA:         -10.335
REMARK INTER:                  -9.899
REMARK INTRA:                  -0.436
REMARK UNBOUND:                -0.427
REMARK  Name = ZINC000000057674
REMARK  1 active torsions:
REMARK  status: ('A' for Active; 'I' for Inactive)
REMARK    1  A    between atoms: C_4  and  C_5
REMARK                            x       y       z     vdW  Elec       q    Type
REMARK                         _______ _______ _______ _____ _____    ______ ____
ROOT
ATOM      1  O   UNL     1      -3.991   4.877 -25.278  0.00  0.00    -0.287 OA
ATOM      2  C   UNL     1      -3.343   4.327 -24.297  0.00  0.00    +0.193 A 
ATOM      3  C   UNL     1      -2.043   4.334 -24.290  0.00  0.00    +0.098 A 
ATOM      4  C   UNL     1      -1.394   3.783 -23.308  0.00  0.00    +0.139 A 
ATOM      5  O   UNL     1      -2.045   3.224 -22.331  0.00  0.00    -0.455 OA
ATOM      6  C   UNL     1      -3.344   3.216 -22.337  0.00  0.00    +0.139 A 
ATOM      7  C   UNL     1      -3.996   2.657 -21.361  0.00  0.00    +0.047 A 
ATOM      8  C   UNL     1      -5.296   2.649 -21.367  0.00  0.00    +0.004 A 
ATOM      9  C   UNL     1      -5.945   3.200 -22.349  0.00  0.00    +0.001 A 
ATOM     10  C   UNL     1      -5.294   3.759 -23.326  0.00  0.00    +0.015 A 
ATOM     11  C   UNL     1      -3.993   3.767 -23.320  0.00  0.00    +0.064 A 
ENDROOT
BRANCH   4  12
ATOM     12  C   UNL     1      -0.094   3.791 -23.302  0.00  0.00    +0.017 A 
ATOM     13  C   UNL     1       0.549   4.876 -23.615  0.00  0.00    +0.011 A 
ATOM     14  C   UNL     1       1.850   4.885 -23.610  0.00  0.00    +0.001 A 
ATOM     15  C   UNL     1       2.506   3.809 -23.292  0.00  0.00    +0.000 A 
ATOM     16  C   UNL     1       1.862   2.724 -22.979  0.00  0.00    +0.001 A 
ATOM     17  C   UNL     1       0.562   2.715 -22.984  0.00  0.00    +0.011 A 
ENDBRANCH   4  12
TORSDOF 1
ENDMDL
MODEL 2
REMARK VINA RESULT:    -9.248      1.375      5.877
REMARK INTER + INTRA:         -10.216
REMARK INTER:                  -9.770
REMARK INTRA:                  -0.446
REMARK UNBOUND:                -0.427
REMARK  Name = ZINC000000057674
REMARK  1 active torsions:
REMARK  status: ('A' for Active; 'I' for Inactive)
REMARK    1  A    between atoms: C_4  and  C_5
REMARK                            x       y       z     vdW  Elec       q    Type
REMARK                         _______ _______ _______ _____ _____    ______ ____
ROOT
ATOM      1  O   UNL     1       0.480   1.183 -20.630  0.00  0.00    -0.287 OA
ATOM      2  C   UNL     1      -0.100   1.887 -21.556  0.00  0.00    +0.193 A 
ATOM      3  C   UNL     1      -1.387   2.069 -21.525  0.00  0.00    +0.098 A 
ATOM      4  C   UNL     1      -1.967   2.774 -22.451  0.00  0.00    +0.139 A 
ATOM      5  O   UNL     1      -1.260   3.297 -23.408  0.00  0.00    -0.455 OA
ATOM      6  C   UNL     1       0.027   3.115 -23.439  0.00  0.00    +0.139 A 
ATOM      7  C   UNL     1       0.735   3.638 -24.397  0.00  0.00    +0.047 A 
ATOM      8  C   UNL     1       2.021   3.457 -24.428  0.00  0.00    +0.004 A 
ATOM      9  C   UNL     1       2.601   2.752 -23.502  0.00  0.00    +0.001 A 
ATOM     10  C   UNL     1       1.894   2.229 -22.545  0.00  0.00    +0.015 A 
ATOM     11  C   UNL     1       0.607   2.411 -22.513  0.00  0.00    +0.064 A 
ENDROOT
BRANCH   4  12
ATOM     12  C   UNL     1      -3.253   2.955 -22.420  0.00  0.00    +0.017 A 
ATOM     13  C   UNL     1      -3.854   3.521 -23.424  0.00  0.00    +0.011 A 
ATOM     14  C   UNL     1      -5.142   3.702 -23.392  0.00  0.00    +0.001 A 
ATOM     15  C   UNL     1      -5.827   3.317 -22.358  0.00  0.00    +0.000 A 
ATOM     16  C   UNL     1      -5.226   2.751 -21.354  0.00  0.00    +0.001 A 
ATOM     17  C   UNL     1      -3.939   2.569 -21.385  0.00  0.00    +0.011 A 
ENDBRANCH   4  12
TORSDOF 1
ENDMDL
MODEL 3
REMARK VINA RESULT:    -9.071      1.397      5.438
REMARK INTER + INTRA:         -10.029
REMARK INTER:                  -9.591
REMARK INTRA:                  -0.438
REMARK UNBOUND:                -0.427
REMARK  Name = ZINC000000057674
REMARK  1 active torsions:
REMARK  status: ('A' for Active; 'I' for Inactive)
REMARK    1  A    between atoms: C_4  and  C_5
REMARK                            x       y       z     vdW  Elec       q    Type
REMARK                         _______ _______ _______ _____ _____    ______ ____
ROOT
ATOM      1  O   UNL     1       0.685   5.269 -24.013  0.00  0.00    -0.287 OA
ATOM      2  C   UNL     1       0.029   4.301 -23.445  0.00  0.00    +0.193 A 
ATOM      3  C   UNL     1      -1.270   4.330 -23.407  0.00  0.00    +0.098 A 
ATOM      4  C   UNL     1      -1.926   3.362 -22.839  0.00  0.00    +0.139 A 
ATOM      5  O   UNL     1      -1.284   2.365 -22.309  0.00  0.00    -0.455 OA
ATOM      6  C   UNL     1       0.015   2.335 -22.346  0.00  0.00    +0.139 A 
ATOM      7  C   UNL     1       0.659   1.338 -21.816  0.00  0.00    +0.047 A 
ATOM      8  C   UNL     1       1.958   1.308 -21.853  0.00  0.00    +0.004 A 
ATOM      9  C   UNL     1       2.614   2.276 -22.421  0.00  0.00    +0.001 A 
ATOM     10  C   UNL     1       1.971   3.273 -22.951  0.00  0.00    +0.015 A 
ATOM     11  C   UNL     1       0.672   3.303 -22.914  0.00  0.00    +0.064 A 
ENDROOT
BRANCH   4  12
ATOM     12  C   UNL     1      -3.225   3.393 -22.802  0.00  0.00    +0.017 A 
ATOM     13  C   UNL     1      -3.895   3.798 -23.840  0.00  0.00    +0.011 A 
ATOM     14  C   UNL     1      -5.194   3.829 -23.803  0.00  0.00    +0.001 A 
ATOM     15  C   UNL     1      -5.823   3.453 -22.729  0.00  0.00    +0.000 A 
ATOM     16  C   UNL     1      -5.153   3.048 -21.692  0.00  0.00    +0.001 A 
ATOM     17  C   UNL     1      -3.854   3.017 -21.728  0.00  0.00    +0.011 A 
ENDBRANCH   4  12
TORSDOF 1
ENDMDL
MODEL 4
REMARK VINA RESULT:    -9.024      1.387      2.718
REMARK INTER + INTRA:          -9.979
REMARK INTER:                  -9.540
REMARK INTRA:                  -0.439
REMARK UNBOUND:                -0.427
REMARK  Name = ZINC000000057674
REMARK  1 active torsions:
REMARK  status: ('A' for Active; 'I' for Inactive)
REMARK    1  A    between atoms: C_4  and  C_5
REMARK                            x       y       z     vdW  Elec       q    Type
REMARK                         _______ _______ _______ _____ _____    ______ ____
ROOT
ATOM      1  O   UNL     1      -3.798   2.629 -20.313  0.00  0.00    -0.287 OA
ATOM      2  C   UNL     1      -3.087   2.800 -21.387  0.00  0.00    +0.193 A 
ATOM      3  C   UNL     1      -1.806   2.577 -21.363  0.00  0.00    +0.098 A 
ATOM      4  C   UNL     1      -1.095   2.748 -22.437  0.00  0.00    +0.139 A 
ATOM      5  O   UNL     1      -1.663   3.144 -23.537  0.00  0.00    -0.455 OA
ATOM      6  C   UNL     1      -2.944   3.367 -23.562  0.00  0.00    +0.139 A 
ATOM      7  C   UNL     1      -3.513   3.763 -24.662  0.00  0.00    +0.047 A 
ATOM      8  C   UNL     1      -4.793   3.986 -24.688  0.00  0.00    +0.004 A 
ATOM      9  C   UNL     1      -5.505   3.815 -23.613  0.00  0.00    +0.001 A 
ATOM     10  C   UNL     1      -4.936   3.420 -22.513  0.00  0.00    +0.015 A 
ATOM     11  C   UNL     1      -3.655   3.196 -22.488  0.00  0.00    +0.064 A 
ENDROOT
BRANCH   4  12
ATOM     12  C   UNL     1       0.185   2.525 -22.411  0.00  0.00    +0.017 A 
ATOM     13  C   UNL     1       0.660   1.556 -21.686  0.00  0.00    +0.011 A 
ATOM     14  C   UNL     1       1.941   1.331 -21.660  0.00  0.00    +0.001 A 
ATOM     15  C   UNL     1       2.746   2.076 -22.358  0.00  0.00    +0.000 A 
ATOM     16  C   UNL     1       2.270   3.045 -23.083  0.00  0.00    +0.001 A 
ATOM     17  C   UNL     1       0.991   3.269 -23.110  0.00  0.00    +0.011 A 
ENDBRANCH   4  12
TORSDOF 1
ENDMDL
MODEL 5
REMARK VINA RESULT:    -8.717      1.695      5.684
REMARK INTER + INTRA:          -9.654
REMARK INTER:                  -9.230
REMARK INTRA:                  -0.424
REMARK UNBOUND:                -0.427
REMARK  Name = ZINC000000057674
REMARK  1 active torsions:
REMARK  status: ('A' for Active; 'I' for Inactive)
REMARK    1  A    between atoms: C_4  and  C_5
REMARK                            x       y       z     vdW  Elec       q    Type
REMARK                         _______ _______ _______ _____ _____    ______ ____
ROOT
ATOM      1  O   UNL     1       1.437   5.610 -23.995  0.00  0.00    -0.287 OA
ATOM      2  C   UNL     1       0.903   4.560 -23.448  0.00  0.00    +0.193 A 
ATOM      3  C   UNL     1      -0.364   4.551 -23.156  0.00  0.00    +0.098 A 
ATOM      4  C   UNL     1      -0.898   3.500 -22.608  0.00  0.00    +0.139 A 
ATOM      5  O   UNL     1      -0.166   2.457 -22.353  0.00  0.00    -0.455 OA
ATOM      6  C   UNL     1       1.100   2.466 -22.644  0.00  0.00    +0.139 A 
ATOM      7  C   UNL     1       1.834   1.422 -22.388  0.00  0.00    +0.047 A 
ATOM      8  C   UNL     1       3.100   1.431 -22.680  0.00  0.00    +0.004 A 
ATOM      9  C   UNL     1       3.635   2.482 -23.228  0.00  0.00    +0.001 A 
ATOM     10  C   UNL     1       2.902   3.525 -23.483  0.00  0.00    +0.015 A 
ATOM     11  C   UNL     1       1.635   3.517 -23.192  0.00  0.00    +0.064 A 
ENDROOT
BRANCH   4  12
ATOM     12  C   UNL     1      -2.165   3.493 -22.317  0.00  0.00    +0.017 A 
ATOM     13  C   UNL     1      -3.050   3.467 -23.269  0.00  0.00    +0.011 A 
ATOM     14  C   UNL     1      -4.317   3.459 -22.978  0.00  0.00    +0.001 A 
ATOM     15  C   UNL     1      -4.699   3.477 -21.735  0.00  0.00    +0.000 A 
ATOM     16  C   UNL     1      -3.814   3.503 -20.784  0.00  0.00    +0.001 A 
ATOM     17  C   UNL     1      -2.547   3.511 -21.074  0.00  0.00    +0.011 A 
ENDBRANCH   4  12
TORSDOF 1
ENDMDL
MODEL 6
REMARK VINA RESULT:    -8.149      2.168      6.094
REMARK INTER + INTRA:          -9.053
REMARK INTER:                  -8.626
REMARK INTRA:                  -0.427
REMARK UNBOUND:                -0.427
REMARK  Name = ZINC000000057674
REMARK  1 active torsions:
REMARK  status: ('A' for Active; 'I' for Inactive)
REMARK    1  A    between atoms: C_4  and  C_5
REMARK                            x       y       z     vdW  Elec       q    Type
REMARK                         _______ _______ _______ _____ _____    ______ ____
ROOT
ATOM      1  O   UNL     1       2.233   5.958 -23.288  0.00  0.00    -0.287 OA
ATOM      2  C   UNL     1       1.665   4.859 -23.686  0.00  0.00    +0.193 A 
ATOM      3  C   UNL     1       0.390   4.839 -23.937  0.00  0.00    +0.098 A 
ATOM      4  C   UNL     1      -0.178   3.740 -24.335  0.00  0.00    +0.139 A 
ATOM      5  O   UNL     1       0.529   2.660 -24.483  0.00  0.00    -0.455 OA
ATOM      6  C   UNL     1       1.804   2.679 -24.233  0.00  0.00    +0.139 A 
ATOM      7  C   UNL     1       2.512   1.598 -24.382  0.00  0.00    +0.047 A 
ATOM      8  C   UNL     1       3.788   1.617 -24.132  0.00  0.00    +0.004 A 
ATOM      9  C   UNL     1       4.356   2.717 -23.733  0.00  0.00    +0.001 A 
ATOM     10  C   UNL     1       3.649   3.797 -23.585  0.00  0.00    +0.015 A 
ATOM     11  C   UNL     1       2.372   3.778 -23.835  0.00  0.00    +0.064 A 
ENDROOT
BRANCH   4  12
ATOM     12  C   UNL     1      -1.453   3.722 -24.584  0.00  0.00    +0.017 A 
ATOM     13  C   UNL     1      -2.306   3.943 -23.628  0.00  0.00    +0.011 A 
ATOM     14  C   UNL     1      -3.582   3.925 -23.878  0.00  0.00    +0.001 A 
ATOM     15  C   UNL     1      -4.005   3.685 -25.083  0.00  0.00    +0.000 A 
ATOM     16  C   UNL     1      -3.153   3.464 -26.039  0.00  0.00    +0.001 A 
ATOM     17  C   UNL     1      -1.877   3.482 -25.790  0.00  0.00    +0.011 A 
ENDBRANCH   4  12
TORSDOF 1
ENDMDL
MODEL 7
REMARK VINA RESULT:    -7.848      1.819      2.900
REMARK INTER + INTRA:          -8.734
REMARK INTER:                  -8.302
REMARK INTRA:                  -0.433
REMARK UNBOUND:                -0.427
REMARK  Name = ZINC000000057674
REMARK  1 active torsions:
REMARK  status: ('A' for Active; 'I' for Inactive)
REMARK    1  A    between atoms: C_4  and  C_5
REMARK                            x       y       z     vdW  Elec       q    Type
REMARK                         _______ _______ _______ _____ _____    ______ ____
ROOT
ATOM      1  O   UNL     1      -0.969   3.593 -25.540  0.00  0.00    -0.287 OA
ATOM      2  C   UNL     1      -0.723   3.141 -24.347  0.00  0.00    +0.193 A 
ATOM      3  C   UNL     1       0.490   2.813 -24.013  0.00  0.00    +0.098 A 
ATOM      4  C   UNL     1       0.737   2.360 -22.820  0.00  0.00    +0.139 A 
ATOM      5  O   UNL     1      -0.229   2.235 -21.960  0.00  0.00    -0.455 OA
ATOM      6  C   UNL     1      -1.442   2.563 -22.293  0.00  0.00    +0.139 A 
ATOM      7  C   UNL     1      -2.409   2.438 -21.432  0.00  0.00    +0.047 A 
ATOM      8  C   UNL     1      -3.622   2.766 -21.765  0.00  0.00    +0.004 A 
ATOM      9  C   UNL     1      -3.869   3.219 -22.959  0.00  0.00    +0.001 A 
ATOM     10  C   UNL     1      -2.903   3.344 -23.819  0.00  0.00    +0.015 A 
ATOM     11  C   UNL     1      -1.689   3.016 -23.486  0.00  0.00    +0.064 A 
ENDROOT
BRANCH   4  12
ATOM     12  C   UNL     1       1.949   2.033 -22.488  0.00  0.00    +0.017 A 
ATOM     13  C   UNL     1       2.189   0.862 -21.976  0.00  0.00    +0.011 A 
ATOM     14  C   UNL     1       3.403   0.533 -21.643  0.00  0.00    +0.001 A 
ATOM     15  C   UNL     1       4.376   1.376 -21.822  0.00  0.00    +0.000 A 
ATOM     16  C   UNL     1       4.137   2.547 -22.334  0.00  0.00    +0.001 A 
ATOM     17  C   UNL     1       2.924   2.875 -22.666  0.00  0.00    +0.011 A 
ENDBRANCH   4  12
TORSDOF 1
ENDMDL
MODEL 8
REMARK VINA RESULT:    -7.618      2.654      4.245
REMARK INTER + INTRA:          -8.490
REMARK INTER:                  -8.044
REMARK INTRA:                  -0.446
REMARK UNBOUND:                -0.427
REMARK  Name = ZINC000000057674
REMARK  1 active torsions:
REMARK  status: ('A' for Active; 'I' for Inactive)
REMARK    1  A    between atoms: C_4  and  C_5
REMARK                            x       y       z     vdW  Elec       q    Type
REMARK                         _______ _______ _______ _____ _____    ______ ____
ROOT
ATOM      1  O   UNL     1      -0.982   1.127 -21.417  0.00  0.00    -0.287 OA
ATOM      2  C   UNL     1      -0.229   1.784 -22.247  0.00  0.00    +0.193 A 
ATOM      3  C   UNL     1       1.052   1.865 -22.039  0.00  0.00    +0.098 A 
ATOM      4  C   UNL     1       1.806   2.522 -22.870  0.00  0.00    +0.139 A 
ATOM      5  O   UNL     1       1.279   3.098 -23.909  0.00  0.00    -0.455 OA
ATOM      6  C   UNL     1      -0.001   3.017 -24.117  0.00  0.00    +0.139 A 
ATOM      7  C   UNL     1      -0.528   3.594 -25.157  0.00  0.00    +0.047 A 
ATOM      8  C   UNL     1      -1.809   3.513 -25.366  0.00  0.00    +0.004 A 
ATOM      9  C   UNL     1      -2.563   2.855 -24.535  0.00  0.00    +0.001 A 
ATOM     10  C   UNL     1      -2.036   2.279 -23.496  0.00  0.00    +0.015 A 
ATOM     11  C   UNL     1      -0.755   2.360 -23.287  0.00  0.00    +0.064 A 
ENDROOT
BRANCH   4  12
ATOM     12  C   UNL     1       3.086   2.603 -22.660  0.00  0.00    +0.017 A 
ATOM     13  C   UNL     1       3.606   2.059 -21.600  0.00  0.00    +0.011 A 
ATOM     14  C   UNL     1       4.887   2.139 -21.391  0.00  0.00    +0.001 A 
ATOM     15  C   UNL     1       5.647   2.763 -22.241  0.00  0.00    +0.000 A 
ATOM     16  C   UNL     1       5.127   3.307 -23.301  0.00  0.00    +0.001 A 
ATOM     17  C   UNL     1       3.847   3.227 -23.511  0.00  0.00    +0.011 A 
ENDBRANCH   4  12
TORSDOF 1
ENDMDL
MODEL 9
REMARK VINA RESULT:    -6.945      3.288      7.180
REMARK INTER + INTRA:          -7.778
REMARK INTER:                  -7.351
REMARK INTRA:                  -0.427
REMARK UNBOUND:                -0.427
REMARK  Name = ZINC000000057674
REMARK  1 active torsions:
REMARK  status: ('A' for Active; 'I' for Inactive)
REMARK    1  A    between atoms: C_4  and  C_5
REMARK                            x       y       z     vdW  Elec       q    Type
REMARK                         _______ _______ _______ _____ _____    ______ ____
ROOT
ATOM      1  O   UNL     1       3.698   6.818 -22.547  0.00  0.00    -0.287 OA
ATOM      2  C   UNL     1       3.462   5.582 -22.871  0.00  0.00    +0.193 A 
ATOM      3  C   UNL     1       2.250   5.203 -23.151  0.00  0.00    +0.098 A 
ATOM      4  C   UNL     1       2.013   3.966 -23.474  0.00  0.00    +0.139 A 
ATOM      5  O   UNL     1       2.988   3.108 -23.519  0.00  0.00    -0.455 OA
ATOM      6  C   UNL     1       4.200   3.486 -23.239  0.00  0.00    +0.139 A 
ATOM      7  C   UNL     1       5.176   2.628 -23.283  0.00  0.00    +0.047 A 
ATOM      8  C   UNL     1       6.387   3.006 -23.004  0.00  0.00    +0.004 A 
ATOM      9  C   UNL     1       6.624   4.243 -22.680  0.00  0.00    +0.001 A 
ATOM     10  C   UNL     1       5.649   5.101 -22.636  0.00  0.00    +0.015 A 
ATOM     11  C   UNL     1       4.436   4.723 -22.915  0.00  0.00    +0.064 A 
ENDROOT
BRANCH   4  12
ATOM     12  C   UNL     1       0.802   3.589 -23.753  0.00  0.00    +0.017 A 
ATOM     13  C   UNL     1       0.215   2.692 -23.018  0.00  0.00    +0.011 A 
ATOM     14  C   UNL     1      -0.998   2.313 -23.297  0.00  0.00    +0.001 A 
ATOM     15  C   UNL     1      -1.623   2.833 -24.311  0.00  0.00    +0.000 A 
ATOM     16  C   UNL     1      -1.037   3.730 -25.047  0.00  0.00    +0.001 A 
ATOM     17  C   UNL     1       0.175   4.108 -24.768  0.00  0.00    +0.011 A 
ENDBRANCH   4  12
TORSDOF 1
ENDMDL
