MODEL 1
REMARK VINA RESULT:    -8.939      0.000      0.000
REMARK INTER + INTRA:          -6.887
REMARK INTER:                 -11.684
REMARK INTRA:                   4.797
REMARK UNBOUND:                 4.665
REMARK  Name = CCCC[C@]12Oc3c(OC)ccc4c3[C@@]13CCN(C)[C@@H](C4)C3=CC=C2OC            ZINC000253505413
REMARK  9 active torsions:
REMARK  status: ('A' for Active; 'I' for Inactive)
REMARK    1  A    between atoms: C_1  and  C_2
REMARK    2  A    between atoms: C_2  and  C_3
REMARK    3  A    between atoms: C_3  and  C_4
REMARK    4  A    between atoms: C_4  and  C_5
REMARK    5  A    between atoms: C_8  and  O_9
REMARK    6  A    between atoms: O_9  and  C_10
REMARK    7  A    between atoms: N_18  and  C_19
REMARK    8  A    between atoms: C_25  and  O_26
REMARK    9  A    between atoms: O_26  and  C_27
REMARK                            x       y       z     vdW  Elec       q    Type
REMARK                         _______ _______ _______ _____ _____    ______ ____
ROOT
ATOM      1  C   UNL     1      -1.521   3.203 -23.819  0.00  0.00    +0.181 C 
ATOM      2  O   UNL     1      -1.850   3.071 -22.346  0.00  0.00    -0.473 OA
ATOM      3  C   UNL     1      -3.325   3.147 -22.051  0.00  0.00    +0.168 A 
ATOM      4  C   UNL     1      -4.232   3.118 -21.160  0.00  0.00    +0.162 A 
ATOM      5  C   UNL     1      -5.448   3.242 -21.500  0.00  0.00    +0.050 A 
ATOM      6  C   UNL     1      -5.760   3.393 -22.707  0.00  0.00    +0.008 A 
ATOM      7  C   UNL     1      -4.861   3.421 -23.588  0.00  0.00    -0.034 A 
ATOM      8  C   UNL     1      -5.174   3.573 -24.817  0.00  0.00    +0.094 C 
ATOM      9  C   UNL     1      -4.277   3.601 -25.694  0.00  0.00    +0.096 C 
ATOM     10  C   UNL     1      -3.059   3.477 -25.356  0.00  0.00    -0.007 C 
ATOM     11  C   UNL     1      -2.154   3.506 -26.245  0.00  0.00    +0.009 C 
ATOM     12  C   UNL     1      -0.946   3.384 -25.918  0.00  0.00    +0.045 C 
ATOM     13  N   UNL     1      -3.335   3.647 -26.770  0.00  0.00    +0.239 N 
ATOM     14  H   UNL     1      -3.620   3.770 -27.742  0.00  0.00    +0.204 HD
ATOM     15  C   UNL     1      -3.705   3.800 -27.960  0.00  0.00    +0.191 C 
ATOM     16  C   UNL     1      -1.969   3.512 -26.429  0.00  0.00    +0.133 C 
ATOM     17  C   UNL     1      -1.647   3.344 -25.059  0.00  0.00    +0.071 C 
ATOM     18  C   UNL     1      -3.643   3.299 -23.269  0.00  0.00    +0.016 A 
ATOM     19  C   UNL     1      -0.626   3.232 -24.700  0.00  0.00    +0.142 C 
ATOM     20  C   UNL     1      -2.750   3.327 -24.149  0.00  0.00    +0.077 C 
ENDROOT
BRANCH   4  21
ATOM     21  O   UNL     1      -3.924   2.968 -19.951  0.00  0.00    -0.491 OA
ATOM     22  C   UNL     1      -3.077   3.725 -19.419  0.00  0.00    +0.277 C 
ENDBRANCH   4  21
BRANCH  19  23
ATOM     23  O   UNL     1       0.582   3.110 -24.377  0.00  0.00    -0.495 OA
ATOM     24  C   UNL     1       1.459   2.979 -25.265  0.00  0.00    +0.276 C 
ENDBRANCH  19  23
BRANCH   1  25
ATOM     25  C   UNL     1      -0.394   3.059 -23.222  0.00  0.00    +0.057 C 
BRANCH  25  26
ATOM     26  C   UNL     1      -0.304   2.598 -22.037  0.00  0.00    +0.004 C 
BRANCH  26  28
ATOM     27  C   UNL     1       1.491   1.466 -21.535  0.00  0.00    +0.004 C 
ATOM     28  C   UNL     1       0.257   1.498 -21.803  0.00  0.00    -0.003 C 
ENDBRANCH  26  28
ENDBRANCH  25  26
ENDBRANCH   1  25
TORSDOF 5
ENDMDL
MODEL 2
REMARK VINA RESULT:    -8.497      1.866      4.374
REMARK INTER + INTRA:          -6.316
REMARK INTER:                 -11.006
REMARK INTRA:                   4.690
REMARK UNBOUND:                 4.665
REMARK  Name = CCCC[C@]12Oc3c(OC)ccc4c3[C@@]13CCN(C)[C@@H](C4)C3=CC=C2OC            ZINC000253505413
REMARK  9 active torsions:
REMARK  status: ('A' for Active; 'I' for Inactive)
REMARK    1  A    between atoms: C_1  and  C_2
REMARK    2  A    between atoms: C_2  and  C_3
REMARK    3  A    between atoms: C_3  and  C_4
REMARK    4  A    between atoms: C_4  and  C_5
REMARK    5  A    between atoms: C_8  and  O_9
REMARK    6  A    between atoms: O_9  and  C_10
REMARK    7  A    between atoms: N_18  and  C_19
REMARK    8  A    between atoms: C_25  and  O_26
REMARK    9  A    between atoms: O_26  and  C_27
REMARK                            x       y       z     vdW  Elec       q    Type
REMARK                         _______ _______ _______ _____ _____    ______ ____
ROOT
ATOM      1  C   UNL     1      -1.211   2.811 -23.301  0.00  0.00    +0.181 C 
ATOM      2  O   UNL     1      -1.280   2.961 -24.806  0.00  0.00    -0.473 OA
ATOM      3  C   UNL     1      -2.657   3.305 -25.314  0.00  0.00    +0.168 A 
ATOM      4  C   UNL     1      -3.383   3.554 -26.327  0.00  0.00    +0.162 A 
ATOM      5  C   UNL     1      -4.617   3.806 -26.167  0.00  0.00    +0.050 A 
ATOM      6  C   UNL     1      -5.122   3.813 -25.017  0.00  0.00    +0.008 A 
ATOM      7  C   UNL     1      -4.401   3.566 -24.014  0.00  0.00    -0.034 A 
ATOM      8  C   UNL     1      -4.911   3.572 -22.843  0.00  0.00    +0.094 C 
ATOM      9  C   UNL     1      -4.191   3.326 -21.845  0.00  0.00    +0.096 C 
ATOM     10  C   UNL     1      -2.957   3.072 -22.003  0.00  0.00    -0.007 C 
ATOM     11  C   UNL     1      -2.232   2.824 -20.992  0.00  0.00    +0.009 C 
ATOM     12  C   UNL     1      -1.009   2.573 -21.139  0.00  0.00    +0.045 C 
ATOM     13  N   UNL     1      -3.462   3.060 -20.643  0.00  0.00    +0.239 N 
ATOM     14  H   UNL     1      -3.902   3.072 -19.722  0.00  0.00    +0.204 HD
ATOM     15  C   UNL     1      -4.020   3.080 -19.518  0.00  0.00    +0.191 C 
ATOM     16  C   UNL     1      -2.084   2.773 -20.783  0.00  0.00    +0.133 C 
ATOM     17  C   UNL     1      -1.542   2.774 -22.091  0.00  0.00    +0.071 C 
ATOM     18  C   UNL     1      -3.170   3.312 -24.154  0.00  0.00    +0.016 A 
ATOM     19  C   UNL     1      -0.494   2.565 -22.299  0.00  0.00    +0.142 C 
ATOM     20  C   UNL     1      -2.455   3.067 -23.153  0.00  0.00    +0.077 C 
ENDROOT
BRANCH   4  21
ATOM     21  O   UNL     1      -2.882   3.549 -27.479  0.00  0.00    -0.491 OA
ATOM     22  C   UNL     1      -3.616   3.383 -28.483  0.00  0.00    +0.277 C 
ENDBRANCH   4  21
BRANCH  19  23
ATOM     23  O   UNL     1       0.728   2.313 -22.444  0.00  0.00    -0.495 OA
ATOM     24  C   UNL     1       1.300   1.512 -21.665  0.00  0.00    +0.276 C 
ENDBRANCH  19  23
BRANCH   1  25
ATOM     25  C   UNL     1      -0.021   2.591 -23.728  0.00  0.00    +0.057 C 
BRANCH  25  26
ATOM     26  C   UNL     1       0.381   2.998 -24.868  0.00  0.00    +0.004 C 
BRANCH  26  28
ATOM     27  C   UNL     1       2.242   1.967 -25.346  0.00  0.00    +0.004 C 
ATOM     28  C   UNL     1       1.603   3.040 -25.155  0.00  0.00    -0.003 C 
ENDBRANCH  26  28
ENDBRANCH  25  26
ENDBRANCH   1  25
TORSDOF 5
ENDMDL
MODEL 3
REMARK VINA RESULT:    -8.230      1.715      4.242
REMARK INTER + INTRA:          -5.970
REMARK INTER:                 -11.515
REMARK INTRA:                   5.545
REMARK UNBOUND:                 4.665
REMARK  Name = CCCC[C@]12Oc3c(OC)ccc4c3[C@@]13CCN(C)[C@@H](C4)C3=CC=C2OC            ZINC000253505413
REMARK  9 active torsions:
REMARK  status: ('A' for Active; 'I' for Inactive)
REMARK    1  A    between atoms: C_1  and  C_2
REMARK    2  A    between atoms: C_2  and  C_3
REMARK    3  A    between atoms: C_3  and  C_4
REMARK    4  A    between atoms: C_4  and  C_5
REMARK    5  A    between atoms: C_8  and  O_9
REMARK    6  A    between atoms: O_9  and  C_10
REMARK    7  A    between atoms: N_18  and  C_19
REMARK    8  A    between atoms: C_25  and  O_26
REMARK    9  A    between atoms: O_26  and  C_27
REMARK                            x       y       z     vdW  Elec       q    Type
REMARK                         _______ _______ _______ _____ _____    ______ ____
ROOT
ATOM      1  C   UNL     1      -1.820   3.131 -24.544  0.00  0.00    +0.181 C 
ATOM      2  O   UNL     1      -0.373   2.738 -24.330  0.00  0.00    -0.473 OA
ATOM      3  C   UNL     1      -0.082   2.248 -22.935  0.00  0.00    +0.168 A 
ATOM      4  C   UNL     1       0.794   1.804 -22.127  0.00  0.00    +0.162 A 
ATOM      5  C   UNL     1       0.459   1.518 -20.937  0.00  0.00    +0.050 A 
ATOM      6  C   UNL     1      -0.727   1.671 -20.554  0.00  0.00    +0.008 A 
ATOM      7  C   UNL     1      -1.593   2.111 -21.356  0.00  0.00    -0.034 A 
ATOM      8  C   UNL     1      -2.800   2.267 -20.970  0.00  0.00    +0.094 C 
ATOM      9  C   UNL     1      -3.662   2.706 -21.770  0.00  0.00    +0.096 C 
ATOM     10  C   UNL     1      -3.330   2.993 -22.962  0.00  0.00    -0.007 C 
ATOM     11  C   UNL     1      -4.203   3.436 -23.768  0.00  0.00    +0.009 C 
ATOM     12  C   UNL     1      -3.883   3.722 -24.949  0.00  0.00    +0.045 C 
ATOM     13  N   UNL     1      -4.720   3.197 -22.599  0.00  0.00    +0.239 N 
ATOM     14  H   UNL     1      -5.675   3.310 -22.258  0.00  0.00    +0.204 HD
ATOM     15  C   UNL     1      -5.889   3.330 -22.162  0.00  0.00    +0.191 C 
ATOM     16  C   UNL     1      -4.384   3.527 -23.933  0.00  0.00    +0.133 C 
ATOM     17  C   UNL     1      -3.039   3.344 -24.337  0.00  0.00    +0.071 C 
ATOM     18  C   UNL     1      -1.279   2.401 -22.546  0.00  0.00    +0.016 A 
ATOM     19  C   UNL     1      -2.685   3.569 -25.341  0.00  0.00    +0.142 C 
ATOM     20  C   UNL     1      -2.144   2.839 -23.342  0.00  0.00    +0.077 C 
ENDROOT
BRANCH   4  21
ATOM     21  O   UNL     1       1.981   1.650 -22.506  0.00  0.00    -0.491 OA
ATOM     22  C   UNL     1       2.674   0.714 -22.038  0.00  0.00    +0.277 C 
ENDBRANCH   4  21
BRANCH  19  23
ATOM     23  O   UNL     1      -2.368   3.856 -26.522  0.00  0.00    -0.495 OA
ATOM     24  C   UNL     1      -3.169   3.627 -27.461  0.00  0.00    +0.276 C 
ENDBRANCH  19  23
BRANCH   1  25
ATOM     25  C   UNL     1      -1.234   3.339 -25.666  0.00  0.00    +0.057 C 
BRANCH  25  26
ATOM     26  C   UNL     1       0.034   3.281 -25.795  0.00  0.00    +0.004 C 
BRANCH  26  28
ATOM     27  C   UNL     1       1.669   4.498 -25.019  0.00  0.00    +0.004 C 
ATOM     28  C   UNL     1       0.735   4.322 -25.852  0.00  0.00    -0.003 C 
ENDBRANCH  26  28
ENDBRANCH  25  26
ENDBRANCH   1  25
TORSDOF 5
ENDMDL
MODEL 4
REMARK VINA RESULT:    -8.162      1.189      4.331
REMARK INTER + INTRA:          -5.883
REMARK INTER:                 -11.119
REMARK INTRA:                   5.237
REMARK UNBOUND:                 4.665
REMARK  Name = CCCC[C@]12Oc3c(OC)ccc4c3[C@@]13CCN(C)[C@@H](C4)C3=CC=C2OC            ZINC000253505413
REMARK  9 active torsions:
REMARK  status: ('A' for Active; 'I' for Inactive)
REMARK    1  A    between atoms: C_1  and  C_2
REMARK    2  A    between atoms: C_2  and  C_3
REMARK    3  A    between atoms: C_3  and  C_4
REMARK    4  A    between atoms: C_4  and  C_5
REMARK    5  A    between atoms: C_8  and  O_9
REMARK    6  A    between atoms: O_9  and  C_10
REMARK    7  A    between atoms: N_18  and  C_19
REMARK    8  A    between atoms: C_25  and  O_26
REMARK    9  A    between atoms: O_26  and  C_27
REMARK                            x       y       z     vdW  Elec       q    Type
REMARK                         _______ _______ _______ _____ _____    ______ ____
ROOT
ATOM      1  C   UNL     1      -2.775   2.751 -22.863  0.00  0.00    +0.181 C 
ATOM      2  O   UNL     1      -1.662   2.352 -21.917  0.00  0.00    -0.473 OA
ATOM      3  C   UNL     1      -0.295   2.382 -22.550  0.00  0.00    +0.168 A 
ATOM      4  C   UNL     1       0.953   2.196 -22.391  0.00  0.00    +0.162 A 
ATOM      5  C   UNL     1       1.744   2.390 -23.365  0.00  0.00    +0.050 A 
ATOM      6  C   UNL     1       1.303   2.763 -24.480  0.00  0.00    +0.008 A 
ATOM      7  C   UNL     1       0.066   2.947 -24.635  0.00  0.00    -0.034 A 
ATOM      8  C   UNL     1      -0.386   3.326 -25.768  0.00  0.00    +0.094 C 
ATOM      9  C   UNL     1      -1.618   3.509 -25.922  0.00  0.00    +0.096 C 
ATOM     10  C   UNL     1      -2.412   3.316 -24.949  0.00  0.00    -0.007 C 
ATOM     11  C   UNL     1      -3.656   3.501 -25.107  0.00  0.00    +0.009 C 
ATOM     12  C   UNL     1      -4.448   3.312 -24.150  0.00  0.00    +0.045 C 
ATOM     13  N   UNL     1      -3.001   3.746 -26.203  0.00  0.00    +0.239 N 
ATOM     14  H   UNL     1      -3.328   4.048 -27.121  0.00  0.00    +0.204 HD
ATOM     15  C   UNL     1      -3.385   4.118 -27.339  0.00  0.00    +0.191 C 
ATOM     16  C   UNL     1      -3.913   3.540 -25.141  0.00  0.00    +0.133 C 
ATOM     17  C   UNL     1      -3.386   3.119 -23.895  0.00  0.00    +0.071 C 
ATOM     18  C   UNL     1      -0.737   2.759 -23.677  0.00  0.00    +0.016 A 
ATOM     19  C   UNL     1      -4.007   2.936 -23.021  0.00  0.00    +0.142 C 
ATOM     20  C   UNL     1      -1.968   2.943 -23.836  0.00  0.00    +0.077 C 
ENDROOT
BRANCH   4  21
ATOM     21  O   UNL     1       1.398   1.823 -21.277  0.00  0.00    -0.491 OA
ATOM     22  C   UNL     1       2.592   1.449 -21.171  0.00  0.00    +0.277 C 
ENDBRANCH   4  21
BRANCH  19  23
ATOM     23  O   UNL     1      -4.801   2.748 -22.066  0.00  0.00    -0.495 OA
ATOM     24  C   UNL     1      -5.972   3.196 -22.125  0.00  0.00    +0.276 C 
ENDBRANCH  19  23
BRANCH   1  25
ATOM     25  C   UNL     1      -3.346   2.491 -21.744  0.00  0.00    +0.057 C 
BRANCH  25  26
ATOM     26  C   UNL     1      -2.759   2.655 -20.624  0.00  0.00    +0.004 C 
BRANCH  26  28
ATOM     27  C   UNL     1      -3.060   4.789 -20.291  0.00  0.00    +0.004 C 
ATOM     28  C   UNL     1      -3.064   3.603 -19.857  0.00  0.00    -0.003 C 
ENDBRANCH  26  28
ENDBRANCH  25  26
ENDBRANCH   1  25
TORSDOF 5
ENDMDL
MODEL 5
REMARK VINA RESULT:    -7.977      1.856      4.265
REMARK INTER + INTRA:          -5.644
REMARK INTER:                 -10.725
REMARK INTRA:                   5.081
REMARK UNBOUND:                 4.665
REMARK  Name = CCCC[C@]12Oc3c(OC)ccc4c3[C@@]13CCN(C)[C@@H](C4)C3=CC=C2OC            ZINC000253505413
REMARK  9 active torsions:
REMARK  status: ('A' for Active; 'I' for Inactive)
REMARK    1  A    between atoms: C_1  and  C_2
REMARK    2  A    between atoms: C_2  and  C_3
REMARK    3  A    between atoms: C_3  and  C_4
REMARK    4  A    between atoms: C_4  and  C_5
REMARK    5  A    between atoms: C_8  and  O_9
REMARK    6  A    between atoms: O_9  and  C_10
REMARK    7  A    between atoms: N_18  and  C_19
REMARK    8  A    between atoms: C_25  and  O_26
REMARK    9  A    between atoms: O_26  and  C_27
REMARK                            x       y       z     vdW  Elec       q    Type
REMARK                         _______ _______ _______ _____ _____    ______ ____
ROOT
ATOM      1  C   UNL     1      -1.349   3.178 -24.065  0.00  0.00    +0.181 C 
ATOM      2  O   UNL     1      -2.776   3.552 -24.409  0.00  0.00    -0.473 OA
ATOM      3  C   UNL     1      -3.748   3.314 -23.283  0.00  0.00    +0.168 A 
ATOM      4  C   UNL     1      -4.956   3.383 -22.891  0.00  0.00    +0.162 A 
ATOM      5  C   UNL     1      -5.255   3.008 -21.716  0.00  0.00    +0.050 A 
ATOM      6  C   UNL     1      -4.368   2.572 -20.941  0.00  0.00    +0.008 A 
ATOM      7  C   UNL     1      -3.172   2.505 -21.331  0.00  0.00    -0.034 A 
ATOM      8  C   UNL     1      -2.268   2.061 -20.545  0.00  0.00    +0.094 C 
ATOM      9  C   UNL     1      -1.077   1.995 -20.935  0.00  0.00    +0.096 C 
ATOM     10  C   UNL     1      -0.775   2.369 -22.111  0.00  0.00    -0.007 C 
ATOM     11  C   UNL     1       0.430   2.300 -22.503  0.00  0.00    +0.009 C 
ATOM     12  C   UNL     1       0.737   2.668 -23.665  0.00  0.00    +0.045 C 
ATOM     13  N   UNL     1       0.307   1.877 -21.279  0.00  0.00    +0.239 N 
ATOM     14  H   UNL     1       1.005   1.519 -20.626  0.00  0.00    +0.204 HD
ATOM     15  C   UNL     1       1.151   1.434 -20.462  0.00  0.00    +0.191 C 
ATOM     16  C   UNL     1       0.678   2.285 -22.582  0.00  0.00    +0.133 C 
ATOM     17  C   UNL     1      -0.343   2.773 -23.433  0.00  0.00    +0.071 C 
ATOM     18  C   UNL     1      -2.855   2.873 -22.498  0.00  0.00    +0.016 A 
ATOM     19  C   UNL     1      -0.156   3.110 -24.451  0.00  0.00    +0.142 C 
ATOM     20  C   UNL     1      -1.663   2.804 -22.883  0.00  0.00    +0.077 C 
ENDROOT
BRANCH   4  21
ATOM     21  O   UNL     1      -5.846   3.818 -23.663  0.00  0.00    -0.491 OA
ATOM     22  C   UNL     1      -5.544   4.614 -24.585  0.00  0.00    +0.277 C 
ENDBRANCH   4  21
BRANCH  19  23
ATOM     23  O   UNL     1       0.154   3.477 -25.612  0.00  0.00    -0.495 OA
ATOM     24  C   UNL     1       1.284   3.978 -25.831  0.00  0.00    +0.276 C 
ENDBRANCH  19  23
BRANCH   1  25
ATOM     25  C   UNL     1      -1.314   3.610 -25.273  0.00  0.00    +0.057 C 
BRANCH  25  26
ATOM     26  C   UNL     1      -2.372   3.872 -25.935  0.00  0.00    +0.004 C 
BRANCH  26  28
ATOM     27  C   UNL     1      -3.680   3.456 -27.629  0.00  0.00    +0.004 C 
ATOM     28  C   UNL     1      -2.528   3.459 -27.111  0.00  0.00    -0.003 C 
ENDBRANCH  26  28
ENDBRANCH  25  26
ENDBRANCH   1  25
TORSDOF 5
ENDMDL
MODEL 6
REMARK VINA RESULT:    -7.907      1.463      3.475
REMARK INTER + INTRA:          -5.553
REMARK INTER:                 -11.021
REMARK INTRA:                   5.468
REMARK UNBOUND:                 4.665
REMARK  Name = CCCC[C@]12Oc3c(OC)ccc4c3[C@@]13CCN(C)[C@@H](C4)C3=CC=C2OC            ZINC000253505413
REMARK  9 active torsions:
REMARK  status: ('A' for Active; 'I' for Inactive)
REMARK    1  A    between atoms: C_1  and  C_2
REMARK    2  A    between atoms: C_2  and  C_3
REMARK    3  A    between atoms: C_3  and  C_4
REMARK    4  A    between atoms: C_4  and  C_5
REMARK    5  A    between atoms: C_8  and  O_9
REMARK    6  A    between atoms: O_9  and  C_10
REMARK    7  A    between atoms: N_18  and  C_19
REMARK    8  A    between atoms: C_25  and  O_26
REMARK    9  A    between atoms: O_26  and  C_27
REMARK                            x       y       z     vdW  Elec       q    Type
REMARK                         _______ _______ _______ _____ _____    ______ ____
ROOT
ATOM      1  C   UNL     1      -1.517   2.623 -22.558  0.00  0.00    +0.181 C 
ATOM      2  O   UNL     1      -2.982   2.871 -22.265  0.00  0.00    -0.473 OA
ATOM      3  C   UNL     1      -3.755   3.382 -23.454  0.00  0.00    +0.168 A 
ATOM      4  C   UNL     1      -4.882   3.763 -23.902  0.00  0.00    +0.162 A 
ATOM      5  C   UNL     1      -4.982   4.129 -25.114  0.00  0.00    +0.050 A 
ATOM      6  C   UNL     1      -3.978   4.116 -25.868  0.00  0.00    +0.008 A 
ATOM      7  C   UNL     1      -2.863   3.738 -25.422  0.00  0.00    -0.034 A 
ATOM      8  C   UNL     1      -1.840   3.723 -26.186  0.00  0.00    +0.094 C 
ATOM      9  C   UNL     1      -0.729   3.346 -25.740  0.00  0.00    +0.096 C 
ATOM     10  C   UNL     1      -0.626   2.980 -24.528  0.00  0.00    -0.007 C 
ATOM     11  C   UNL     1       0.498   2.599 -24.080  0.00  0.00    +0.009 C 
ATOM     12  C   UNL     1       0.608   2.235 -22.882  0.00  0.00    +0.045 C 
ATOM     13  N   UNL     1       0.580   2.935 -25.333  0.00  0.00    +0.239 N 
ATOM     14  H   UNL     1       1.377   2.936 -25.970  0.00  0.00    +0.204 HD
ATOM     15  C   UNL     1       1.548   2.943 -26.132  0.00  0.00    +0.191 C 
ATOM     16  C   UNL     1       0.730   2.521 -23.988  0.00  0.00    +0.133 C 
ATOM     17  C   UNL     1      -0.420   2.546 -23.161  0.00  0.00    +0.071 C 
ATOM     18  C   UNL     1      -2.743   3.370 -24.218  0.00  0.00    +0.016 A 
ATOM     19  C   UNL     1      -0.404   2.246 -22.115  0.00  0.00    +0.142 C 
ATOM     20  C   UNL     1      -1.631   2.994 -23.776  0.00  0.00    +0.077 C 
ENDROOT
BRANCH   4  21
ATOM     21  O   UNL     1      -5.888   3.778 -23.151  0.00  0.00    -0.491 OA
ATOM     22  C   UNL     1      -5.917   3.058 -22.124  0.00  0.00    +0.277 C 
ENDBRANCH   4  21
BRANCH  19  23
ATOM     23  O   UNL     1      -0.291   1.882 -20.918  0.00  0.00    -0.495 OA
ATOM     24  C   UNL     1       0.820   1.490 -20.483  0.00  0.00    +0.276 C 
ENDBRANCH  19  23
BRANCH   1  25
ATOM     25  C   UNL     1      -1.683   2.311 -21.324  0.00  0.00    +0.057 C 
BRANCH  25  26
ATOM     26  C   UNL     1      -2.729   2.639 -20.673  0.00  0.00    +0.004 C 
BRANCH  26  28
ATOM     27  C   UNL     1      -3.577   3.805 -19.036  0.00  0.00    +0.004 C 
ATOM     28  C   UNL     1      -2.783   3.708 -20.015  0.00  0.00    -0.003 C 
ENDBRANCH  26  28
ENDBRANCH  25  26
ENDBRANCH   1  25
TORSDOF 5
ENDMDL
MODEL 7
REMARK VINA RESULT:    -7.594      1.883      5.572
REMARK INTER + INTRA:          -5.148
REMARK INTER:                  -9.832
REMARK INTRA:                   4.684
REMARK UNBOUND:                 4.665
REMARK  Name = CCCC[C@]12Oc3c(OC)ccc4c3[C@@]13CCN(C)[C@@H](C4)C3=CC=C2OC            ZINC000253505413
REMARK  9 active torsions:
REMARK  status: ('A' for Active; 'I' for Inactive)
REMARK    1  A    between atoms: C_1  and  C_2
REMARK    2  A    between atoms: C_2  and  C_3
REMARK    3  A    between atoms: C_3  and  C_4
REMARK    4  A    between atoms: C_4  and  C_5
REMARK    5  A    between atoms: C_8  and  O_9
REMARK    6  A    between atoms: O_9  and  C_10
REMARK    7  A    between atoms: N_18  and  C_19
REMARK    8  A    between atoms: C_25  and  O_26
REMARK    9  A    between atoms: O_26  and  C_27
REMARK                            x       y       z     vdW  Elec       q    Type
REMARK                         _______ _______ _______ _____ _____    ______ ____
ROOT
ATOM      1  C   UNL     1      -2.755   3.442 -24.041  0.00  0.00    +0.181 C 
ATOM      2  O   UNL     1      -1.512   3.377 -24.905  0.00  0.00    -0.473 OA
ATOM      3  C   UNL     1      -0.298   2.863 -24.174  0.00  0.00    +0.168 A 
ATOM      4  C   UNL     1       0.937   2.572 -24.243  0.00  0.00    +0.162 A 
ATOM      5  C   UNL     1       1.534   2.128 -23.215  0.00  0.00    +0.050 A 
ATOM      6  C   UNL     1       0.913   1.973 -22.134  0.00  0.00    +0.008 A 
ATOM      7  C   UNL     1      -0.311   2.262 -22.068  0.00  0.00    -0.034 A 
ATOM      8  C   UNL     1      -0.946   2.106 -20.971  0.00  0.00    +0.094 C 
ATOM      9  C   UNL     1      -2.167   2.394 -20.907  0.00  0.00    +0.096 C 
ATOM     10  C   UNL     1      -2.766   2.840 -21.934  0.00  0.00    -0.007 C 
ATOM     11  C   UNL     1      -3.999   3.130 -21.866  0.00  0.00    +0.009 C 
ATOM     12  C   UNL     1      -4.599   3.571 -22.879  0.00  0.00    +0.045 C 
ATOM     13  N   UNL     1      -3.554   2.691 -20.726  0.00  0.00    +0.239 N 
ATOM     14  H   UNL     1      -4.032   2.555 -19.834  0.00  0.00    +0.204 HD
ATOM     15  C   UNL     1      -4.124   2.517 -19.621  0.00  0.00    +0.191 C 
ATOM     16  C   UNL     1      -4.253   3.189 -21.851  0.00  0.00    +0.133 C 
ATOM     17  C   UNL     1      -3.526   3.352 -23.056  0.00  0.00    +0.071 C 
ATOM     18  C   UNL     1      -0.923   2.706 -23.082  0.00  0.00    +0.016 A 
ATOM     19  C   UNL     1      -3.975   3.729 -23.973  0.00  0.00    +0.142 C 
ATOM     20  C   UNL     1      -2.142   2.993 -23.013  0.00  0.00    +0.077 C 
ENDROOT
BRANCH   4  21
ATOM     21  O   UNL     1       1.563   2.725 -25.322  0.00  0.00    -0.491 OA
ATOM     22  C   UNL     1       2.240   1.780 -25.795  0.00  0.00    +0.277 C 
ENDBRANCH   4  21
BRANCH  19  23
ATOM     23  O   UNL     1      -4.578   4.170 -24.983  0.00  0.00    -0.495 OA
ATOM     24  C   UNL     1      -5.627   4.845 -24.843  0.00  0.00    +0.276 C 
ENDBRANCH  19  23
BRANCH   1  25
ATOM     25  C   UNL     1      -3.113   3.864 -25.199  0.00  0.00    +0.057 C 
BRANCH  25  26
ATOM     26  C   UNL     1      -2.593   3.423 -26.277  0.00  0.00    +0.004 C 
BRANCH  26  28
ATOM     27  C   UNL     1      -3.574   3.247 -28.217  0.00  0.00    +0.004 C 
ATOM     28  C   UNL     1      -2.886   3.916 -27.395  0.00  0.00    -0.003 C 
ENDBRANCH  26  28
ENDBRANCH  25  26
ENDBRANCH   1  25
TORSDOF 5
ENDMDL
MODEL 8
REMARK VINA RESULT:    -6.834      5.835      8.465
REMARK INTER + INTRA:          -4.167
REMARK INTER:                  -8.798
REMARK INTRA:                   4.631
REMARK UNBOUND:                 4.665
REMARK  Name = CCCC[C@]12Oc3c(OC)ccc4c3[C@@]13CCN(C)[C@@H](C4)C3=CC=C2OC            ZINC000253505413
REMARK  9 active torsions:
REMARK  status: ('A' for Active; 'I' for Inactive)
REMARK    1  A    between atoms: C_1  and  C_2
REMARK    2  A    between atoms: C_2  and  C_3
REMARK    3  A    between atoms: C_3  and  C_4
REMARK    4  A    between atoms: C_4  and  C_5
REMARK    5  A    between atoms: C_8  and  O_9
REMARK    6  A    between atoms: O_9  and  C_10
REMARK    7  A    between atoms: N_18  and  C_19
REMARK    8  A    between atoms: C_25  and  O_26
REMARK    9  A    between atoms: O_26  and  C_27
REMARK                            x       y       z     vdW  Elec       q    Type
REMARK                         _______ _______ _______ _____ _____    ______ ____
ROOT
ATOM      1  C   UNL     1       5.162   6.002 -22.417  0.00  0.00    +0.181 C 
ATOM      2  O   UNL     1       3.689   6.356 -22.448  0.00  0.00    -0.473 OA
ATOM      3  C   UNL     1       2.821   5.272 -23.033  0.00  0.00    +0.168 A 
ATOM      4  C   UNL     1       1.644   4.906 -23.343  0.00  0.00    +0.162 A 
ATOM      5  C   UNL     1       1.460   3.765 -23.867  0.00  0.00    +0.050 A 
ATOM      6  C   UNL     1       2.431   2.998 -24.081  0.00  0.00    +0.008 A 
ATOM      7  C   UNL     1       3.597   3.362 -23.773  0.00  0.00    -0.034 A 
ATOM      8  C   UNL     1       4.586   2.584 -23.990  0.00  0.00    +0.094 C 
ATOM      9  C   UNL     1       5.748   2.948 -23.683  0.00  0.00    +0.096 C 
ATOM     10  C   UNL     1       5.935   4.090 -23.159  0.00  0.00    -0.007 C 
ATOM     11  C   UNL     1       7.110   4.455 -22.850  0.00  0.00    +0.009 C 
ATOM     12  C   UNL     1       7.303   5.583 -22.331  0.00  0.00    +0.045 C 
ATOM     13  N   UNL     1       7.108   3.264 -23.373  0.00  0.00    +0.239 N 
ATOM     14  H   UNL     1       7.877   2.619 -23.559  0.00  0.00    +0.204 HD
ATOM     15  C   UNL     1       8.040   2.457 -23.609  0.00  0.00    +0.191 C 
ATOM     16  C   UNL     1       7.352   4.529 -22.787  0.00  0.00    +0.133 C 
ATOM     17  C   UNL     1       6.238   5.372 -22.558  0.00  0.00    +0.071 C 
ATOM     18  C   UNL     1       3.800   4.495 -23.251  0.00  0.00    +0.016 A 
ATOM     19  C   UNL     1       6.325   6.362 -22.112  0.00  0.00    +0.142 C 
ATOM     20  C   UNL     1       4.963   4.854 -22.946  0.00  0.00    +0.077 C 
ENDROOT
BRANCH   4  21
ATOM     21  O   UNL     1       0.670   5.670 -23.130  0.00  0.00    -0.491 OA
ATOM     22  C   UNL     1      -0.504   5.236 -23.229  0.00  0.00    +0.277 C 
ENDBRANCH   4  21
BRANCH  19  23
ATOM     23  O   UNL     1       6.521   7.489 -21.593  0.00  0.00    -0.495 OA
ATOM     24  C   UNL     1       7.554   7.693 -20.909  0.00  0.00    +0.276 C 
ENDBRANCH  19  23
BRANCH   1  25
ATOM     25  C   UNL     1       5.076   7.178 -21.912  0.00  0.00    +0.057 C 
BRANCH  25  26
ATOM     26  C   UNL     1       4.047   7.915 -22.069  0.00  0.00    +0.004 C 
BRANCH  26  28
ATOM     27  C   UNL     1       4.158   9.776 -20.937  0.00  0.00    +0.004 C 
ATOM     28  C   UNL     1       4.129   9.168 -22.045  0.00  0.00    -0.003 C 
ENDBRANCH  26  28
ENDBRANCH  25  26
ENDBRANCH   1  25
TORSDOF 5
ENDMDL
MODEL 9
REMARK VINA RESULT:    -6.687      4.785      7.518
REMARK INTER + INTRA:          -3.977
REMARK INTER:                  -8.642
REMARK INTRA:                   4.665
REMARK UNBOUND:                 4.665
REMARK  Name = CCCC[C@]12Oc3c(OC)ccc4c3[C@@]13CCN(C)[C@@H](C4)C3=CC=C2OC            ZINC000253505413
REMARK  9 active torsions:
REMARK  status: ('A' for Active; 'I' for Inactive)
REMARK    1  A    between atoms: C_1  and  C_2
REMARK    2  A    between atoms: C_2  and  C_3
REMARK    3  A    between atoms: C_3  and  C_4
REMARK    4  A    between atoms: C_4  and  C_5
REMARK    5  A    between atoms: C_8  and  O_9
REMARK    6  A    between atoms: O_9  and  C_10
REMARK    7  A    between atoms: N_18  and  C_19
REMARK    8  A    between atoms: C_25  and  O_26
REMARK    9  A    between atoms: O_26  and  C_27
REMARK                            x       y       z     vdW  Elec       q    Type
REMARK                         _______ _______ _______ _____ _____    ______ ____
ROOT
ATOM      1  C   UNL     1       4.535   4.700 -22.679  0.00  0.00    +0.181 C 
ATOM      2  O   UNL     1       3.224   5.397 -22.979  0.00  0.00    -0.473 OA
ATOM      3  C   UNL     1       2.070   4.448 -23.180  0.00  0.00    +0.168 A 
ATOM      4  C   UNL     1       0.831   4.324 -23.433  0.00  0.00    +0.162 A 
ATOM      5  C   UNL     1       0.318   3.164 -23.493  0.00  0.00    +0.050 A 
ATOM      6  C   UNL     1       1.025   2.143 -23.305  0.00  0.00    +0.008 A 
ATOM      7  C   UNL     1       2.253   2.269 -23.055  0.00  0.00    -0.034 A 
ATOM      8  C   UNL     1       2.975   1.234 -22.863  0.00  0.00    +0.094 C 
ATOM      9  C   UNL     1       4.199   1.360 -22.614  0.00  0.00    +0.096 C 
ATOM     10  C   UNL     1       4.715   2.519 -22.554  0.00  0.00    -0.007 C 
ATOM     11  C   UNL     1       5.952   2.644 -22.302  0.00  0.00    +0.009 C 
ATOM     12  C   UNL     1       6.470   3.788 -22.240  0.00  0.00    +0.045 C 
ATOM     13  N   UNL     1       5.600   1.393 -22.325  0.00  0.00    +0.239 N 
ATOM     14  H   UNL     1       6.148   0.545 -22.177  0.00  0.00    +0.204 HD
ATOM     15  C   UNL     1       6.258   0.339 -22.146  0.00  0.00    +0.191 C 
ATOM     16  C   UNL     1       6.207   2.669 -22.250  0.00  0.00    +0.133 C 
ATOM     17  C   UNL     1       5.384   3.801 -22.466  0.00  0.00    +0.071 C 
ATOM     18  C   UNL     1       2.782   3.416 -22.991  0.00  0.00    +0.016 A 
ATOM     19  C   UNL     1       5.759   4.822 -22.429  0.00  0.00    +0.142 C 
ATOM     20  C   UNL     1       4.006   3.538 -22.742  0.00  0.00    +0.077 C 
ENDROOT
BRANCH   4  21
ATOM     21  O   UNL     1       0.119   5.342 -23.621  0.00  0.00    -0.491 OA
ATOM     22  C   UNL     1      -1.053   5.381 -23.176  0.00  0.00    +0.277 C 
ENDBRANCH   4  21
BRANCH  19  23
ATOM     23  O   UNL     1       6.280   5.964 -22.367  0.00  0.00    -0.495 OA
ATOM     24  C   UNL     1       7.513   6.081 -22.160  0.00  0.00    +0.276 C 
ENDBRANCH  19  23
BRANCH   1  25
ATOM     25  C   UNL     1       4.799   5.955 -22.674  0.00  0.00    +0.057 C 
BRANCH  25  26
ATOM     26  C   UNL     1       3.930   6.835 -22.360  0.00  0.00    +0.004 C 
BRANCH  26  28
ATOM     27  C   UNL     1       4.346   8.263 -20.766  0.00  0.00    +0.004 C 
ATOM     28  C   UNL     1       4.268   7.989 -21.997  0.00  0.00    -0.003 C 
ENDBRANCH  26  28
ENDBRANCH  25  26
ENDBRANCH   1  25
TORSDOF 5
ENDMDL
