MODEL 1
REMARK VINA RESULT:   -10.010      0.000      0.000
REMARK INTER + INTRA:          -9.048
REMARK INTER:                 -10.875
REMARK INTRA:                   1.828
REMARK UNBOUND:                 1.840
REMARK  Name = C[C@@H]1CC[C@H](O)[C@]2(CO)CC[C@H]3[C@H]([C@@H]12)C3(C)C             ZINC000100393064
REMARK  6 active torsions:
REMARK  status: ('A' for Active; 'I' for Inactive)
REMARK    1  A    between atoms: C_1  and  C_2
REMARK    2  A    between atoms: C_5  and  O_6
REMARK    3  A    between atoms: C_7  and  C_8
REMARK    4  A    between atoms: C_8  and  O_9
REMARK    5  A    between atoms: C_15  and  C_16
REMARK    6  A    between atoms: C_15  and  C_17
REMARK                            x       y       z     vdW  Elec       q    Type
REMARK                         _______ _______ _______ _____ _____    ______ ____
ROOT
ATOM      1  C   UNL     1      -3.717   2.506 -21.006  0.00  0.00    +0.008 C 
ATOM      2  C   UNL     1      -3.992   3.008 -22.173  0.00  0.00    -0.010 C 
ATOM      3  C   UNL     1      -5.205   3.387 -22.449  0.00  0.00    +0.006 C 
ATOM      4  C   UNL     1      -5.480   3.889 -23.616  0.00  0.00    +0.032 C 
ATOM      5  C   UNL     1      -4.542   4.013 -24.508  0.00  0.00    +0.123 C 
ATOM      6  C   UNL     1      -3.329   3.635 -24.232  0.00  0.00    +0.023 C 
ATOM      7  C   UNL     1      -2.391   3.758 -25.124  0.00  0.00    +0.012 C 
ATOM      8  C   UNL     1      -1.179   3.380 -24.849  0.00  0.00    +0.005 C 
ATOM      9  C   UNL     1      -0.904   2.877 -23.682  0.00  0.00    -0.001 C 
ATOM     10  C   UNL     1      -1.842   2.754 -22.790  0.00  0.00    +0.003 C 
ATOM     11  C   UNL     1      -0.629   2.375 -22.515  0.00  0.00    -0.028 C 
ATOM     12  C   UNL     1       0.642   2.143 -22.663  0.00  0.00    +0.011 C 
ATOM     13  C   UNL     1      -0.795   1.953 -21.296  0.00  0.00    +0.011 C 
ATOM     14  C   UNL     1      -3.054   3.132 -23.065  0.00  0.00    +0.007 C 
ENDROOT
BRANCH   5  15
ATOM     15  O   UNL     1      -4.817   4.516 -25.675  0.00  0.00    -0.391 OA
ATOM     16  H   UNL     1      -4.302   5.326 -25.807  0.00  0.00    +0.210 HD
ENDBRANCH   5  15
BRANCH   6  17
ATOM     17  C   UNL     1      -3.604   4.137 -25.400  0.00  0.00    +0.165 C 
BRANCH  17  18
ATOM     18  O   UNL     1      -4.072   5.346 -25.493  0.00  0.00    -0.394 OA
ATOM     19  H   UNL     1      -4.615   5.422 -26.294  0.00  0.00    +0.209 HD
ENDBRANCH  17  18
ENDBRANCH   6  17
TORSDOF 3
ENDMDL
MODEL 2
REMARK VINA RESULT:    -9.366      1.395      2.821
REMARK INTER + INTRA:          -8.347
REMARK INTER:                 -10.635
REMARK INTRA:                   2.288
REMARK UNBOUND:                 1.840
REMARK  Name = C[C@@H]1CC[C@H](O)[C@]2(CO)CC[C@H]3[C@H]([C@@H]12)C3(C)C             ZINC000100393064
REMARK  6 active torsions:
REMARK  status: ('A' for Active; 'I' for Inactive)
REMARK    1  A    between atoms: C_1  and  C_2
REMARK    2  A    between atoms: C_5  and  O_6
REMARK    3  A    between atoms: C_7  and  C_8
REMARK    4  A    between atoms: C_8  and  O_9
REMARK    5  A    between atoms: C_15  and  C_16
REMARK    6  A    between atoms: C_15  and  C_17
REMARK                            x       y       z     vdW  Elec       q    Type
REMARK                         _______ _______ _______ _____ _____    ______ ____
ROOT
ATOM      1  C   UNL     1      -1.677   3.563 -25.407  0.00  0.00    +0.008 C 
ATOM      2  C   UNL     1      -2.767   3.615 -24.700  0.00  0.00    -0.010 C 
ATOM      3  C   UNL     1      -3.854   4.106 -25.217  0.00  0.00    +0.006 C 
ATOM      4  C   UNL     1      -4.944   4.158 -24.509  0.00  0.00    +0.032 C 
ATOM      5  C   UNL     1      -4.947   3.720 -23.285  0.00  0.00    +0.123 C 
ATOM      6  C   UNL     1      -3.859   3.229 -22.768  0.00  0.00    +0.023 C 
ATOM      7  C   UNL     1      -3.862   2.791 -21.544  0.00  0.00    +0.012 C 
ATOM      8  C   UNL     1      -2.775   2.301 -21.027  0.00  0.00    +0.005 C 
ATOM      9  C   UNL     1      -1.685   2.248 -21.735  0.00  0.00    -0.001 C 
ATOM     10  C   UNL     1      -1.682   2.686 -22.959  0.00  0.00    +0.003 C 
ATOM     11  C   UNL     1      -0.595   2.196 -22.442  0.00  0.00    -0.028 C 
ATOM     12  C   UNL     1       0.211   1.658 -21.574  0.00  0.00    +0.011 C 
ATOM     13  C   UNL     1       0.215   2.330 -23.450  0.00  0.00    +0.011 C 
ATOM     14  C   UNL     1      -2.770   3.177 -23.476  0.00  0.00    +0.007 C 
ENDROOT
BRANCH   5  15
ATOM     15  O   UNL     1      -6.036   3.772 -22.578  0.00  0.00    -0.391 OA
ATOM     16  H   UNL     1      -6.302   4.698 -22.463  0.00  0.00    +0.210 HD
ENDBRANCH   5  15
BRANCH   6  17
ATOM     17  C   UNL     1      -4.949   3.282 -22.061  0.00  0.00    +0.165 C 
BRANCH  17  18
ATOM     18  O   UNL     1      -6.036   3.773 -22.578  0.00  0.00    -0.394 OA
ATOM     19  H   UNL     1      -6.808   3.403 -22.120  0.00  0.00    +0.209 HD
ENDBRANCH  17  18
ENDBRANCH   6  17
TORSDOF 3
ENDMDL
MODEL 3
REMARK VINA RESULT:    -9.237      1.854      3.383
REMARK INTER + INTRA:          -8.207
REMARK INTER:                 -10.277
REMARK INTRA:                   2.070
REMARK UNBOUND:                 1.840
REMARK  Name = C[C@@H]1CC[C@H](O)[C@]2(CO)CC[C@H]3[C@H]([C@@H]12)C3(C)C             ZINC000100393064
REMARK  6 active torsions:
REMARK  status: ('A' for Active; 'I' for Inactive)
REMARK    1  A    between atoms: C_1  and  C_2
REMARK    2  A    between atoms: C_5  and  O_6
REMARK    3  A    between atoms: C_7  and  C_8
REMARK    4  A    between atoms: C_8  and  O_9
REMARK    5  A    between atoms: C_15  and  C_16
REMARK    6  A    between atoms: C_15  and  C_17
REMARK                            x       y       z     vdW  Elec       q    Type
REMARK                         _______ _______ _______ _____ _____    ______ ____
ROOT
ATOM      1  C   UNL     1      -5.165   3.716 -24.268  0.00  0.00    +0.008 C 
ATOM      2  C   UNL     1      -3.939   3.654 -24.696  0.00  0.00    -0.010 C 
ATOM      3  C   UNL     1      -3.695   3.671 -25.973  0.00  0.00    +0.006 C 
ATOM      4  C   UNL     1      -2.469   3.609 -26.401  0.00  0.00    +0.032 C 
ATOM      5  C   UNL     1      -1.487   3.530 -25.553  0.00  0.00    +0.123 C 
ATOM      6  C   UNL     1      -1.731   3.513 -24.276  0.00  0.00    +0.023 C 
ATOM      7  C   UNL     1      -0.749   3.434 -23.428  0.00  0.00    +0.012 C 
ATOM      8  C   UNL     1      -0.993   3.417 -22.151  0.00  0.00    +0.005 C 
ATOM      9  C   UNL     1      -2.219   3.478 -21.723  0.00  0.00    -0.001 C 
ATOM     10  C   UNL     1      -3.201   3.558 -22.571  0.00  0.00    +0.003 C 
ATOM     11  C   UNL     1      -3.445   3.540 -21.294  0.00  0.00    -0.028 C 
ATOM     12  C   UNL     1      -3.238   3.496 -20.011  0.00  0.00    +0.011 C 
ATOM     13  C   UNL     1      -4.743   3.617 -21.311  0.00  0.00    +0.011 C 
ATOM     14  C   UNL     1      -2.957   3.575 -23.848  0.00  0.00    +0.007 C 
ENDROOT
BRANCH   5  15
ATOM     15  O   UNL     1      -0.261   3.468 -25.981  0.00  0.00    -0.391 OA
ATOM     16  H   UNL     1       0.205   4.284 -25.742  0.00  0.00    +0.210 HD
ENDBRANCH   5  15
BRANCH   6  17
ATOM     17  C   UNL     1      -0.505   3.451 -24.704  0.00  0.00    +0.165 C 
BRANCH  17  18
ATOM     18  O   UNL     1      -0.244   2.896 -25.851  0.00  0.00    -0.394 OA
ATOM     19  H   UNL     1       0.078   1.992 -25.706  0.00  0.00    +0.209 HD
ENDBRANCH  17  18
ENDBRANCH   6  17
TORSDOF 3
ENDMDL
MODEL 4
REMARK VINA RESULT:    -9.222      1.027      3.079
REMARK INTER + INTRA:          -8.191
REMARK INTER:                 -10.058
REMARK INTRA:                   1.867
REMARK UNBOUND:                 1.840
REMARK  Name = C[C@@H]1CC[C@H](O)[C@]2(CO)CC[C@H]3[C@H]([C@@H]12)C3(C)C             ZINC000100393064
REMARK  6 active torsions:
REMARK  status: ('A' for Active; 'I' for Inactive)
REMARK    1  A    between atoms: C_1  and  C_2
REMARK    2  A    between atoms: C_5  and  O_6
REMARK    3  A    between atoms: C_7  and  C_8
REMARK    4  A    between atoms: C_8  and  O_9
REMARK    5  A    between atoms: C_15  and  C_16
REMARK    6  A    between atoms: C_15  and  C_17
REMARK                            x       y       z     vdW  Elec       q    Type
REMARK                         _______ _______ _______ _____ _____    ______ ____
ROOT
ATOM      1  C   UNL     1      -0.628   3.061 -23.432  0.00  0.00    +0.008 C 
ATOM      2  C   UNL     1      -1.668   3.280 -24.180  0.00  0.00    -0.010 C 
ATOM      3  C   UNL     1      -1.533   3.372 -25.470  0.00  0.00    +0.006 C 
ATOM      4  C   UNL     1      -2.574   3.591 -26.219  0.00  0.00    +0.032 C 
ATOM      5  C   UNL     1      -3.749   3.717 -25.677  0.00  0.00    +0.123 C 
ATOM      6  C   UNL     1      -3.884   3.624 -24.388  0.00  0.00    +0.023 C 
ATOM      7  C   UNL     1      -5.059   3.751 -23.847  0.00  0.00    +0.012 C 
ATOM      8  C   UNL     1      -5.194   3.658 -22.557  0.00  0.00    +0.005 C 
ATOM      9  C   UNL     1      -4.154   3.440 -21.808  0.00  0.00    -0.001 C 
ATOM     10  C   UNL     1      -2.979   3.314 -22.350  0.00  0.00    +0.003 C 
ATOM     11  C   UNL     1      -3.114   3.221 -21.060  0.00  0.00    -0.028 C 
ATOM     12  C   UNL     1      -3.678   3.202 -19.889  0.00  0.00    +0.011 C 
ATOM     13  C   UNL     1      -1.878   3.009 -20.718  0.00  0.00    +0.011 C 
ATOM     14  C   UNL     1      -2.844   3.406 -23.639  0.00  0.00    +0.007 C 
ENDROOT
BRANCH   5  15
ATOM     15  O   UNL     1      -4.789   3.935 -26.426  0.00  0.00    -0.391 OA
ATOM     16  H   UNL     1      -5.211   3.091 -26.646  0.00  0.00    +0.210 HD
ENDBRANCH   5  15
BRANCH   6  17
ATOM     17  C   UNL     1      -4.924   3.843 -25.136  0.00  0.00    +0.165 C 
BRANCH  17  18
ATOM     18  O   UNL     1      -5.173   3.064 -26.147  0.00  0.00    -0.394 OA
ATOM     19  H   UNL     1      -5.852   2.417 -25.898  0.00  0.00    +0.209 HD
ENDBRANCH  17  18
ENDBRANCH   6  17
TORSDOF 3
ENDMDL
MODEL 5
REMARK VINA RESULT:    -9.183      2.349      4.684
REMARK INTER + INTRA:          -8.148
REMARK INTER:                  -9.980
REMARK INTRA:                   1.831
REMARK UNBOUND:                 1.840
REMARK  Name = C[C@@H]1CC[C@H](O)[C@]2(CO)CC[C@H]3[C@H]([C@@H]12)C3(C)C             ZINC000100393064
REMARK  6 active torsions:
REMARK  status: ('A' for Active; 'I' for Inactive)
REMARK    1  A    between atoms: C_1  and  C_2
REMARK    2  A    between atoms: C_5  and  O_6
REMARK    3  A    between atoms: C_7  and  C_8
REMARK    4  A    between atoms: C_8  and  O_9
REMARK    5  A    between atoms: C_15  and  C_16
REMARK    6  A    between atoms: C_15  and  C_17
REMARK                            x       y       z     vdW  Elec       q    Type
REMARK                         _______ _______ _______ _____ _____    ______ ____
ROOT
ATOM      1  C   UNL     1      -3.222   4.164 -25.440  0.00  0.00    +0.008 C 
ATOM      2  C   UNL     1      -2.261   3.658 -24.726  0.00  0.00    -0.010 C 
ATOM      3  C   UNL     1      -1.052   3.615 -25.201  0.00  0.00    +0.006 C 
ATOM      4  C   UNL     1      -0.090   3.109 -24.486  0.00  0.00    +0.032 C 
ATOM      5  C   UNL     1      -0.339   2.646 -23.297  0.00  0.00    +0.123 C 
ATOM      6  C   UNL     1      -1.548   2.689 -22.822  0.00  0.00    +0.023 C 
ATOM      7  C   UNL     1      -1.796   2.227 -21.632  0.00  0.00    +0.012 C 
ATOM      8  C   UNL     1      -3.006   2.270 -21.157  0.00  0.00    +0.005 C 
ATOM      9  C   UNL     1      -3.967   2.776 -21.872  0.00  0.00    -0.001 C 
ATOM     10  C   UNL     1      -3.719   3.238 -23.061  0.00  0.00    +0.003 C 
ATOM     11  C   UNL     1      -4.928   3.282 -22.586  0.00  0.00    -0.028 C 
ATOM     12  C   UNL     1      -5.924   3.131 -21.764  0.00  0.00    +0.011 C 
ATOM     13  C   UNL     1      -5.543   3.840 -23.586  0.00  0.00    +0.011 C 
ATOM     14  C   UNL     1      -2.509   3.195 -23.536  0.00  0.00    +0.007 C 
ENDROOT
BRANCH   5  15
ATOM     15  O   UNL     1       0.623   2.140 -22.582  0.00  0.00    -0.391 OA
ATOM     16  H   UNL     1       0.251   1.524 -21.932  0.00  0.00    +0.210 HD
ENDBRANCH   5  15
BRANCH   6  17
ATOM     17  C   UNL     1      -0.587   2.183 -22.107  0.00  0.00    +0.165 C 
BRANCH  17  18
ATOM     18  O   UNL     1      -0.031   1.064 -22.465  0.00  0.00    -0.394 OA
ATOM     19  H   UNL     1      -0.537   0.320 -22.100  0.00  0.00    +0.209 HD
ENDBRANCH  17  18
ENDBRANCH   6  17
TORSDOF 3
ENDMDL
MODEL 6
REMARK VINA RESULT:    -9.082      1.365      2.284
REMARK INTER + INTRA:          -8.039
REMARK INTER:                 -10.216
REMARK INTRA:                   2.177
REMARK UNBOUND:                 1.840
REMARK  Name = C[C@@H]1CC[C@H](O)[C@]2(CO)CC[C@H]3[C@H]([C@@H]12)C3(C)C             ZINC000100393064
REMARK  6 active torsions:
REMARK  status: ('A' for Active; 'I' for Inactive)
REMARK    1  A    between atoms: C_1  and  C_2
REMARK    2  A    between atoms: C_5  and  O_6
REMARK    3  A    between atoms: C_7  and  C_8
REMARK    4  A    between atoms: C_8  and  O_9
REMARK    5  A    between atoms: C_15  and  C_16
REMARK    6  A    between atoms: C_15  and  C_17
REMARK                            x       y       z     vdW  Elec       q    Type
REMARK                         _______ _______ _______ _____ _____    ______ ____
ROOT
ATOM      1  C   UNL     1      -1.351   2.231 -21.266  0.00  0.00    +0.008 C 
ATOM      2  C   UNL     1      -2.532   2.584 -21.681  0.00  0.00    -0.010 C 
ATOM      3  C   UNL     1      -3.566   2.424 -20.909  0.00  0.00    +0.006 C 
ATOM      4  C   UNL     1      -4.747   2.777 -21.324  0.00  0.00    +0.032 C 
ATOM      5  C   UNL     1      -4.893   3.289 -22.510  0.00  0.00    +0.123 C 
ATOM      6  C   UNL     1      -3.859   3.449 -23.281  0.00  0.00    +0.023 C 
ATOM      7  C   UNL     1      -4.006   3.961 -24.467  0.00  0.00    +0.012 C 
ATOM      8  C   UNL     1      -2.971   4.121 -25.238  0.00  0.00    +0.005 C 
ATOM      9  C   UNL     1      -1.791   3.768 -24.824  0.00  0.00    -0.001 C 
ATOM     10  C   UNL     1      -1.644   3.256 -23.638  0.00  0.00    +0.003 C 
ATOM     11  C   UNL     1      -0.610   3.415 -24.409  0.00  0.00    -0.028 C 
ATOM     12  C   UNL     1       0.100   3.736 -25.451  0.00  0.00    +0.011 C 
ATOM     13  C   UNL     1       0.324   2.951 -23.634  0.00  0.00    +0.011 C 
ATOM     14  C   UNL     1      -2.679   3.096 -22.867  0.00  0.00    +0.007 C 
ENDROOT
BRANCH   5  15
ATOM     15  O   UNL     1      -6.074   3.642 -22.924  0.00  0.00    -0.391 OA
ATOM     16  H   UNL     1      -6.196   3.345 -23.839  0.00  0.00    +0.210 HD
ENDBRANCH   5  15
BRANCH   6  17
ATOM     17  C   UNL     1      -5.040   3.802 -23.696  0.00  0.00    +0.165 C 
BRANCH  17  18
ATOM     18  O   UNL     1      -5.990   4.028 -22.837  0.00  0.00    -0.394 OA
ATOM     19  H   UNL     1      -6.579   3.258 -22.796  0.00  0.00    +0.209 HD
ENDBRANCH  17  18
ENDBRANCH   6  17
TORSDOF 3
ENDMDL
MODEL 7
REMARK VINA RESULT:    -9.027      1.576      3.702
REMARK INTER + INTRA:          -7.979
REMARK INTER:                  -9.864
REMARK INTRA:                   1.885
REMARK UNBOUND:                 1.840
REMARK  Name = C[C@@H]1CC[C@H](O)[C@]2(CO)CC[C@H]3[C@H]([C@@H]12)C3(C)C             ZINC000100393064
REMARK  6 active torsions:
REMARK  status: ('A' for Active; 'I' for Inactive)
REMARK    1  A    between atoms: C_1  and  C_2
REMARK    2  A    between atoms: C_5  and  O_6
REMARK    3  A    between atoms: C_7  and  C_8
REMARK    4  A    between atoms: C_8  and  O_9
REMARK    5  A    between atoms: C_15  and  C_16
REMARK    6  A    between atoms: C_15  and  C_17
REMARK                            x       y       z     vdW  Elec       q    Type
REMARK                         _______ _______ _______ _____ _____    ______ ____
ROOT
ATOM      1  C   UNL     1      -1.124   2.018 -21.048  0.00  0.00    +0.008 C 
ATOM      2  C   UNL     1      -0.920   2.474 -22.248  0.00  0.00    -0.010 C 
ATOM      3  C   UNL     1       0.280   2.473 -22.748  0.00  0.00    +0.006 C 
ATOM      4  C   UNL     1       0.485   2.929 -23.949  0.00  0.00    +0.032 C 
ATOM      5  C   UNL     1      -0.511   3.385 -24.649  0.00  0.00    +0.123 C 
ATOM      6  C   UNL     1      -1.711   3.386 -24.149  0.00  0.00    +0.023 C 
ATOM      7  C   UNL     1      -2.706   3.843 -24.850  0.00  0.00    +0.012 C 
ATOM      8  C   UNL     1      -3.906   3.844 -24.350  0.00  0.00    +0.005 C 
ATOM      9  C   UNL     1      -4.111   3.389 -23.150  0.00  0.00    -0.001 C 
ATOM     10  C   UNL     1      -3.115   2.932 -22.449  0.00  0.00    +0.003 C 
ATOM     11  C   UNL     1      -4.315   2.933 -21.949  0.00  0.00    -0.028 C 
ATOM     12  C   UNL     1      -5.600   3.114 -21.855  0.00  0.00    +0.011 C 
ATOM     13  C   UNL     1      -4.074   2.415 -20.782  0.00  0.00    +0.011 C 
ATOM     14  C   UNL     1      -1.915   2.931 -22.949  0.00  0.00    +0.007 C 
ENDROOT
BRANCH   5  15
ATOM     15  O   UNL     1      -0.306   3.841 -25.849  0.00  0.00    -0.391 OA
ATOM     16  H   UNL     1      -1.152   4.103 -26.243  0.00  0.00    +0.210 HD
ENDBRANCH   5  15
BRANCH   6  17
ATOM     17  C   UNL     1      -1.506   3.842 -25.350  0.00  0.00    +0.165 C 
BRANCH  17  18
ATOM     18  O   UNL     1      -0.826   3.138 -26.205  0.00  0.00    -0.394 OA
ATOM     19  H   UNL     1      -0.531   2.314 -25.785  0.00  0.00    +0.209 HD
ENDBRANCH  17  18
ENDBRANCH   6  17
TORSDOF 3
ENDMDL
MODEL 8
REMARK VINA RESULT:    -8.973      2.208      3.440
REMARK INTER + INTRA:          -7.920
REMARK INTER:                  -9.754
REMARK INTRA:                   1.834
REMARK UNBOUND:                 1.840
REMARK  Name = C[C@@H]1CC[C@H](O)[C@]2(CO)CC[C@H]3[C@H]([C@@H]12)C3(C)C             ZINC000100393064
REMARK  6 active torsions:
REMARK  status: ('A' for Active; 'I' for Inactive)
REMARK    1  A    between atoms: C_1  and  C_2
REMARK    2  A    between atoms: C_5  and  O_6
REMARK    3  A    between atoms: C_7  and  C_8
REMARK    4  A    between atoms: C_8  and  O_9
REMARK    5  A    between atoms: C_15  and  C_16
REMARK    6  A    between atoms: C_15  and  C_17
REMARK                            x       y       z     vdW  Elec       q    Type
REMARK                         _______ _______ _______ _____ _____    ______ ____
ROOT
ATOM      1  C   UNL     1      -4.743   3.691 -25.080  0.00  0.00    +0.008 C 
ATOM      2  C   UNL     1      -4.491   3.577 -23.809  0.00  0.00    -0.010 C 
ATOM      3  C   UNL     1      -5.469   3.543 -22.954  0.00  0.00    +0.006 C 
ATOM      4  C   UNL     1      -5.218   3.429 -21.683  0.00  0.00    +0.032 C 
ATOM      5  C   UNL     1      -3.988   3.350 -21.268  0.00  0.00    +0.123 C 
ATOM      6  C   UNL     1      -3.010   3.385 -22.124  0.00  0.00    +0.023 C 
ATOM      7  C   UNL     1      -1.780   3.306 -21.709  0.00  0.00    +0.012 C 
ATOM      8  C   UNL     1      -0.802   3.340 -22.565  0.00  0.00    +0.005 C 
ATOM      9  C   UNL     1      -1.054   3.454 -23.835  0.00  0.00    -0.001 C 
ATOM     10  C   UNL     1      -2.283   3.533 -24.250  0.00  0.00    +0.003 C 
ATOM     11  C   UNL     1      -1.305   3.567 -25.106  0.00  0.00    -0.028 C 
ATOM     12  C   UNL     1      -0.093   3.561 -25.577  0.00  0.00    +0.011 C 
ATOM     13  C   UNL     1      -1.977   3.682 -26.213  0.00  0.00    +0.011 C 
ATOM     14  C   UNL     1      -3.261   3.498 -23.394  0.00  0.00    +0.007 C 
ENDROOT
BRANCH   5  15
ATOM     15  O   UNL     1      -3.736   3.237 -19.998  0.00  0.00    -0.391 OA
ATOM     16  H   UNL     1      -4.571   3.163 -19.509  0.00  0.00    +0.210 HD
ENDBRANCH   5  15
BRANCH   6  17
ATOM     17  C   UNL     1      -2.758   3.272 -20.853  0.00  0.00    +0.165 C 
BRANCH  17  18
ATOM     18  O   UNL     1      -3.181   4.179 -20.023  0.00  0.00    -0.394 OA
ATOM     19  H   UNL     1      -4.151   4.167 -19.998  0.00  0.00    +0.209 HD
ENDBRANCH  17  18
ENDBRANCH   6  17
TORSDOF 3
ENDMDL
MODEL 9
REMARK VINA RESULT:    -8.570      3.500      5.794
REMARK INTER + INTRA:          -7.481
REMARK INTER:                  -9.321
REMARK INTRA:                   1.840
REMARK UNBOUND:                 1.840
REMARK  Name = C[C@@H]1CC[C@H](O)[C@]2(CO)CC[C@H]3[C@H]([C@@H]12)C3(C)C             ZINC000100393064
REMARK  6 active torsions:
REMARK  status: ('A' for Active; 'I' for Inactive)
REMARK    1  A    between atoms: C_1  and  C_2
REMARK    2  A    between atoms: C_5  and  O_6
REMARK    3  A    between atoms: C_7  and  C_8
REMARK    4  A    between atoms: C_8  and  O_9
REMARK    5  A    between atoms: C_15  and  C_16
REMARK    6  A    between atoms: C_15  and  C_17
REMARK                            x       y       z     vdW  Elec       q    Type
REMARK                         _______ _______ _______ _____ _____    ______ ____
ROOT
ATOM      1  C   UNL     1      -0.505   3.745 -25.119  0.00  0.00    +0.008 C 
ATOM      2  C   UNL     1       0.468   3.043 -24.617  0.00  0.00    -0.010 C 
ATOM      3  C   UNL     1       1.561   2.866 -25.299  0.00  0.00    +0.006 C 
ATOM      4  C   UNL     1       2.533   2.164 -24.798  0.00  0.00    +0.032 C 
ATOM      5  C   UNL     1       2.414   1.640 -23.614  0.00  0.00    +0.123 C 
ATOM      6  C   UNL     1       1.322   1.817 -22.932  0.00  0.00    +0.023 C 
ATOM      7  C   UNL     1       1.202   1.292 -21.749  0.00  0.00    +0.012 C 
ATOM      8  C   UNL     1       0.110   1.469 -21.066  0.00  0.00    +0.005 C 
ATOM      9  C   UNL     1      -0.863   2.171 -21.568  0.00  0.00    -0.001 C 
ATOM     10  C   UNL     1      -0.744   2.696 -22.751  0.00  0.00    +0.003 C 
ATOM     11  C   UNL     1      -1.836   2.873 -22.069  0.00  0.00    -0.028 C 
ATOM     12  C   UNL     1      -2.694   2.797 -21.095  0.00  0.00    +0.011 C 
ATOM     13  C   UNL     1      -2.511   3.600 -22.908  0.00  0.00    +0.011 C 
ATOM     14  C   UNL     1       0.349   2.518 -23.434  0.00  0.00    +0.007 C 
ENDROOT
BRANCH   5  15
ATOM     15  O   UNL     1       3.387   0.938 -23.113  0.00  0.00    -0.391 OA
ATOM     16  H   UNL     1       3.693   1.352 -22.291  0.00  0.00    +0.210 HD
ENDBRANCH   5  15
BRANCH   6  17
ATOM     17  C   UNL     1       2.295   1.115 -22.431  0.00  0.00    +0.165 C 
BRANCH  17  18
ATOM     18  O   UNL     1       2.598  -0.039 -22.947  0.00  0.00    -0.394 OA
ATOM     19  H   UNL     1       2.409  -0.027 -23.899  0.00  0.00    +0.209 HD
ENDBRANCH  17  18
ENDBRANCH   6  17
TORSDOF 3
ENDMDL
