MODEL 1
REMARK VINA RESULT:    -7.759      0.000      0.000
REMARK INTER + INTRA:         -15.326
REMARK INTER:                 -13.200
REMARK INTRA:                  -2.126
REMARK UNBOUND:                -2.123
REMARK  Name = ZINC000038143715
REMARK  13 active torsions:
REMARK  status: ('A' for Active; 'I' for Inactive)
REMARK    1  A    between atoms: C_1  and  C_2
REMARK    2  A    between atoms: C_2  and  C_3
REMARK    3  A    between atoms: C_3  and  C_4
REMARK    4  A    between atoms: C_4  and  C_5
REMARK    5  A    between atoms: C_5  and  C_6
REMARK    6  A    between atoms: C_6  and  C_7
REMARK    7  A    between atoms: C_7  and  C_8
REMARK    8  A    between atoms: C_8  and  C_9
REMARK    9  A    between atoms: C_9  and  C_10
REMARK   10  A    between atoms: C_10  and  C_11
REMARK   11  A    between atoms: C_11  and  C_12
REMARK   12  A    between atoms: C_12  and  C_13
REMARK   13  A    between atoms: C_13  and  C_14
REMARK                            x       y       z     vdW  Elec       q    Type
REMARK                         _______ _______ _______ _____ _____    ______ ____
ROOT
ATOM      1  C   UNL     1      -0.734   1.377 -21.649  0.00  0.00    +0.005 C 
ENDROOT
BRANCH   1   2
ATOM      2  C   UNL     1      -1.936   1.872 -21.635  0.00  0.00    +0.000 C 
BRANCH   2   3
ATOM      3  C   UNL     1      -2.244   2.809 -20.788  0.00  0.00    +0.000 C 
BRANCH   3   4
ATOM      4  C   UNL     1      -3.460   3.264 -20.734  0.00  0.00    +0.000 C 
BRANCH   4   5
ATOM      5  C   UNL     1      -4.458   2.485 -21.029  0.00  0.00    +0.000 C 
BRANCH   5   6
ATOM      6  C   UNL     1      -5.356   2.875 -21.885  0.00  0.00    -0.000 C 
BRANCH   6   7
ATOM      7  C   UNL     1      -5.123   3.898 -22.651  0.00  0.00    -0.000 C 
BRANCH   7   8
ATOM      8  C   UNL     1      -5.285   3.797 -23.937  0.00  0.00    -0.000 C 
BRANCH   8   9
ATOM      9  C   UNL     1      -4.258   3.587 -24.707  0.00  0.00    -0.000 C 
BRANCH   9  10
ATOM     10  C   UNL     1      -3.316   4.478 -24.793  0.00  0.00    -0.000 C 
BRANCH  10  12
ATOM     11  C   UNL     1      -1.418   4.828 -23.632  0.00  0.00    +0.004 C 
ATOM     12  C   UNL     1      -2.088   4.154 -24.521  0.00  0.00    -0.003 C 
ENDBRANCH  10  12
ENDBRANCH   9  10
ENDBRANCH   8   9
ENDBRANCH   7   8
ENDBRANCH   6   7
ENDBRANCH   5   6
ENDBRANCH   4   5
ENDBRANCH   3   4
ENDBRANCH   2   3
ENDBRANCH   1   2
BRANCH   1  13
ATOM     13  C   UNL     1       0.294   2.169 -21.711  0.00  0.00    +0.038 C 
BRANCH  13  14
ATOM     14  C   UNL     1       1.465   1.692 -22.011  0.00  0.00    -0.011 C 
ATOM     15  C   UNL     1       1.857   1.662 -23.250  0.00  0.00    +0.169 C 
ATOM     16  C   UNL     1       3.029   1.184 -23.550  0.00  0.00    -0.089 C 
ATOM     17  C   UNL     1       3.808   0.737 -22.611  0.00  0.00    +0.039 C 
ATOM     18  C   UNL     1       3.416   0.767 -21.372  0.00  0.00    +0.166 C 
ATOM     19  O   UNL     1       4.196   0.319 -20.432  0.00  0.00    -0.289 OA
ATOM     20  O   UNL     1       3.420   1.153 -24.789  0.00  0.00    -0.826 OA
ATOM     21  O   UNL     1       1.077   2.109 -24.190  0.00  0.00    -0.289 OA
ATOM     22  C   UNL     1       2.245   1.244 -21.072  0.00  0.00    -0.086 C 
ATOM     23  O   UNL     1       1.854   1.275 -19.832  0.00  0.00    -0.826 OA
ENDBRANCH  13  14
ENDBRANCH   1  13
TORSDOF 12
ENDMDL
MODEL 2
REMARK VINA RESULT:    -7.746      1.832      2.602
REMARK INTER + INTRA:         -15.304
REMARK INTER:                 -13.185
REMARK INTRA:                  -2.119
REMARK UNBOUND:                -2.123
REMARK  Name = ZINC000038143715
REMARK  13 active torsions:
REMARK  status: ('A' for Active; 'I' for Inactive)
REMARK    1  A    between atoms: C_1  and  C_2
REMARK    2  A    between atoms: C_2  and  C_3
REMARK    3  A    between atoms: C_3  and  C_4
REMARK    4  A    between atoms: C_4  and  C_5
REMARK    5  A    between atoms: C_5  and  C_6
REMARK    6  A    between atoms: C_6  and  C_7
REMARK    7  A    between atoms: C_7  and  C_8
REMARK    8  A    between atoms: C_8  and  C_9
REMARK    9  A    between atoms: C_9  and  C_10
REMARK   10  A    between atoms: C_10  and  C_11
REMARK   11  A    between atoms: C_11  and  C_12
REMARK   12  A    between atoms: C_12  and  C_13
REMARK   13  A    between atoms: C_13  and  C_14
REMARK                            x       y       z     vdW  Elec       q    Type
REMARK                         _______ _______ _______ _____ _____    ______ ____
ROOT
ATOM      1  C   UNL     1       0.775   4.971 -23.257  0.00  0.00    +0.005 C 
ENDROOT
BRANCH   1   2
ATOM      2  C   UNL     1      -0.471   4.987 -23.626  0.00  0.00    +0.000 C 
BRANCH   2   3
ATOM      3  C   UNL     1      -1.413   4.823 -22.746  0.00  0.00    +0.000 C 
BRANCH   3   4
ATOM      4  C   UNL     1      -1.511   3.701 -22.098  0.00  0.00    +0.000 C 
BRANCH   4   5
ATOM      5  C   UNL     1      -2.570   3.451 -21.387  0.00  0.00    +0.000 C 
BRANCH   5   6
ATOM      6  C   UNL     1      -3.472   2.627 -21.832  0.00  0.00    -0.000 C 
BRANCH   6   7
ATOM      7  C   UNL     1      -4.729   2.957 -21.793  0.00  0.00    -0.000 C 
BRANCH   7   8
ATOM      8  C   UNL     1      -5.219   3.755 -22.693  0.00  0.00    -0.000 C 
BRANCH   8   9
ATOM      9  C   UNL     1      -5.040   3.499 -23.956  0.00  0.00    -0.000 C 
BRANCH   9  10
ATOM     10  C   UNL     1      -4.590   4.425 -24.749  0.00  0.00    -0.000 C 
BRANCH  10  12
ATOM     11  C   UNL     1      -3.013   3.044 -25.572  0.00  0.00    +0.004 C 
ATOM     12  C   UNL     1      -3.731   4.124 -25.677  0.00  0.00    -0.003 C 
ENDBRANCH  10  12
ENDBRANCH   9  10
ENDBRANCH   8   9
ENDBRANCH   7   8
ENDBRANCH   6   7
ENDBRANCH   5   6
ENDBRANCH   4   5
ENDBRANCH   3   4
ENDBRANCH   2   3
ENDBRANCH   1   2
BRANCH   1  13
ATOM     13  C   UNL     1       1.653   4.323 -23.962  0.00  0.00    +0.038 C 
BRANCH  13  14
ATOM     14  C   UNL     1       2.389   3.408 -23.403  0.00  0.00    -0.011 C 
ATOM     15  C   UNL     1       2.003   2.167 -23.414  0.00  0.00    +0.169 C 
ATOM     16  C   UNL     1       2.739   1.253 -22.854  0.00  0.00    -0.089 C 
ATOM     17  C   UNL     1       3.861   1.580 -22.285  0.00  0.00    +0.039 C 
ATOM     18  C   UNL     1       4.247   2.821 -22.275  0.00  0.00    +0.166 C 
ATOM     19  O   UNL     1       5.370   3.148 -21.705  0.00  0.00    -0.289 OA
ATOM     20  O   UNL     1       2.353   0.011 -22.865  0.00  0.00    -0.826 OA
ATOM     21  O   UNL     1       0.881   1.840 -23.983  0.00  0.00    -0.289 OA
ATOM     22  C   UNL     1       3.512   3.735 -22.834  0.00  0.00    -0.086 C 
ATOM     23  O   UNL     1       3.898   4.976 -22.823  0.00  0.00    -0.826 OA
ENDBRANCH  13  14
ENDBRANCH   1  13
TORSDOF 12
ENDMDL
MODEL 3
REMARK VINA RESULT:    -7.667      0.468      2.154
REMARK INTER + INTRA:         -15.168
REMARK INTER:                 -12.930
REMARK INTRA:                  -2.238
REMARK UNBOUND:                -2.123
REMARK  Name = ZINC000038143715
REMARK  13 active torsions:
REMARK  status: ('A' for Active; 'I' for Inactive)
REMARK    1  A    between atoms: C_1  and  C_2
REMARK    2  A    between atoms: C_2  and  C_3
REMARK    3  A    between atoms: C_3  and  C_4
REMARK    4  A    between atoms: C_4  and  C_5
REMARK    5  A    between atoms: C_5  and  C_6
REMARK    6  A    between atoms: C_6  and  C_7
REMARK    7  A    between atoms: C_7  and  C_8
REMARK    8  A    between atoms: C_8  and  C_9
REMARK    9  A    between atoms: C_9  and  C_10
REMARK   10  A    between atoms: C_10  and  C_11
REMARK   11  A    between atoms: C_11  and  C_12
REMARK   12  A    between atoms: C_12  and  C_13
REMARK   13  A    between atoms: C_13  and  C_14
REMARK                            x       y       z     vdW  Elec       q    Type
REMARK                         _______ _______ _______ _____ _____    ______ ____
ROOT
ATOM      1  C   UNL     1      -0.742   1.359 -21.780  0.00  0.00    +0.005 C 
ENDROOT
BRANCH   1   2
ATOM      2  C   UNL     1      -1.923   1.851 -21.553  0.00  0.00    +0.000 C 
BRANCH   2   3
ATOM      3  C   UNL     1      -2.050   3.079 -21.146  0.00  0.00    +0.000 C 
BRANCH   3   4
ATOM      4  C   UNL     1      -3.224   3.543 -20.834  0.00  0.00    +0.000 C 
BRANCH   4   5
ATOM      5  C   UNL     1      -4.294   2.945 -21.265  0.00  0.00    +0.000 C 
BRANCH   5   6
ATOM      6  C   UNL     1      -5.134   3.582 -22.026  0.00  0.00    -0.000 C 
BRANCH   6   7
ATOM      7  C   UNL     1      -5.150   3.358 -23.307  0.00  0.00    -0.000 C 
BRANCH   7   8
ATOM      8  C   UNL     1      -4.944   4.334 -24.140  0.00  0.00    -0.000 C 
BRANCH   8   9
ATOM      9  C   UNL     1      -3.990   4.248 -25.020  0.00  0.00    -0.000 C 
BRANCH   9  10
ATOM     10  C   UNL     1      -3.025   3.393 -24.851  0.00  0.00    -0.000 C 
BRANCH  10  12
ATOM     11  C   UNL     1      -1.213   4.540 -24.163  0.00  0.00    +0.004 C 
ATOM     12  C   UNL     1      -1.792   3.763 -25.031  0.00  0.00    -0.003 C 
ENDBRANCH  10  12
ENDBRANCH   9  10
ENDBRANCH   8   9
ENDBRANCH   7   8
ENDBRANCH   6   7
ENDBRANCH   5   6
ENDBRANCH   4   5
ENDBRANCH   3   4
ENDBRANCH   2   3
ENDBRANCH   1   2
BRANCH   1  13
ATOM     13  C   UNL     1       0.304   2.129 -21.723  0.00  0.00    +0.038 C 
BRANCH  13  14
ATOM     14  C   UNL     1       1.480   1.649 -21.999  0.00  0.00    -0.011 C 
ATOM     15  C   UNL     1       2.244   1.213 -21.042  0.00  0.00    +0.169 C 
ATOM     16  C   UNL     1       3.421   0.733 -21.318  0.00  0.00    -0.089 C 
ATOM     17  C   UNL     1       3.833   0.689 -22.550  0.00  0.00    +0.039 C 
ATOM     18  C   UNL     1       3.068   1.126 -23.507  0.00  0.00    +0.166 C 
ATOM     19  O   UNL     1       3.481   1.082 -24.740  0.00  0.00    -0.289 OA
ATOM     20  O   UNL     1       4.185   0.296 -20.361  0.00  0.00    -0.826 OA
ATOM     21  O   UNL     1       1.833   1.256 -19.810  0.00  0.00    -0.289 OA
ATOM     22  C   UNL     1       1.892   1.606 -23.231  0.00  0.00    -0.086 C 
ATOM     23  O   UNL     1       1.128   2.042 -24.188  0.00  0.00    -0.826 OA
ENDBRANCH  13  14
ENDBRANCH   1  13
TORSDOF 12
ENDMDL
MODEL 4
REMARK VINA RESULT:    -7.597      2.089      3.082
REMARK INTER + INTRA:         -15.049
REMARK INTER:                 -13.161
REMARK INTRA:                  -1.888
REMARK UNBOUND:                -2.123
REMARK  Name = ZINC000038143715
REMARK  13 active torsions:
REMARK  status: ('A' for Active; 'I' for Inactive)
REMARK    1  A    between atoms: C_1  and  C_2
REMARK    2  A    between atoms: C_2  and  C_3
REMARK    3  A    between atoms: C_3  and  C_4
REMARK    4  A    between atoms: C_4  and  C_5
REMARK    5  A    between atoms: C_5  and  C_6
REMARK    6  A    between atoms: C_6  and  C_7
REMARK    7  A    between atoms: C_7  and  C_8
REMARK    8  A    between atoms: C_8  and  C_9
REMARK    9  A    between atoms: C_9  and  C_10
REMARK   10  A    between atoms: C_10  and  C_11
REMARK   11  A    between atoms: C_11  and  C_12
REMARK   12  A    between atoms: C_12  and  C_13
REMARK   13  A    between atoms: C_13  and  C_14
REMARK                            x       y       z     vdW  Elec       q    Type
REMARK                         _______ _______ _______ _____ _____    ______ ____
ROOT
ATOM      1  C   UNL     1       0.487   4.947 -23.152  0.00  0.00    +0.005 C 
ENDROOT
BRANCH   1   2
ATOM      2  C   UNL     1      -0.786   4.891 -23.408  0.00  0.00    +0.000 C 
BRANCH   2   3
ATOM      3  C   UNL     1      -1.634   4.673 -22.447  0.00  0.00    +0.000 C 
BRANCH   3   4
ATOM      4  C   UNL     1      -1.715   3.495 -21.905  0.00  0.00    +0.000 C 
BRANCH   4   5
ATOM      5  C   UNL     1      -2.692   3.219 -21.093  0.00  0.00    +0.000 C 
BRANCH   5   6
ATOM      6  C   UNL     1      -3.795   2.707 -21.554  0.00  0.00    -0.000 C 
BRANCH   6   7
ATOM      7  C   UNL     1      -4.835   3.464 -21.740  0.00  0.00    -0.000 C 
BRANCH   7   8
ATOM      8  C   UNL     1      -5.469   3.429 -22.874  0.00  0.00    -0.000 C 
BRANCH   8   9
ATOM      9  C   UNL     1      -5.105   4.210 -23.848  0.00  0.00    -0.000 C 
BRANCH   9  10
ATOM     10  C   UNL     1      -4.915   3.721 -25.037  0.00  0.00    -0.000 C 
BRANCH  10  12
ATOM     11  C   UNL     1      -2.902   2.776 -25.388  0.00  0.00    +0.004 C 
ATOM     12  C   UNL     1      -3.732   3.760 -25.575  0.00  0.00    -0.003 C 
ENDBRANCH  10  12
ENDBRANCH   9  10
ENDBRANCH   8   9
ENDBRANCH   7   8
ENDBRANCH   6   7
ENDBRANCH   5   6
ENDBRANCH   4   5
ENDBRANCH   3   4
ENDBRANCH   2   3
ENDBRANCH   1   2
BRANCH   1  13
ATOM     13  C   UNL     1       1.350   4.733 -24.101  0.00  0.00    +0.038 C 
BRANCH  13  14
ATOM     14  C   UNL     1       2.365   3.948 -23.891  0.00  0.00    -0.011 C 
ATOM     15  C   UNL     1       3.399   4.385 -23.236  0.00  0.00    +0.169 C 
ATOM     16  C   UNL     1       4.414   3.599 -23.026  0.00  0.00    -0.089 C 
ATOM     17  C   UNL     1       4.394   2.378 -23.471  0.00  0.00    +0.039 C 
ATOM     18  C   UNL     1       3.359   1.942 -24.126  0.00  0.00    +0.166 C 
ATOM     19  O   UNL     1       3.339   0.720 -24.571  0.00  0.00    -0.289 OA
ATOM     20  O   UNL     1       5.449   4.036 -22.371  0.00  0.00    -0.826 OA
ATOM     21  O   UNL     1       3.420   5.606 -22.791  0.00  0.00    -0.289 OA
ATOM     22  C   UNL     1       2.345   2.726 -24.336  0.00  0.00    -0.086 C 
ATOM     23  O   UNL     1       1.310   2.290 -24.991  0.00  0.00    -0.826 OA
ENDBRANCH  13  14
ENDBRANCH   1  13
TORSDOF 12
ENDMDL
MODEL 5
REMARK VINA RESULT:    -7.582      2.989      6.832
REMARK INTER + INTRA:         -15.025
REMARK INTER:                 -12.587
REMARK INTRA:                  -2.438
REMARK UNBOUND:                -2.123
REMARK  Name = ZINC000038143715
REMARK  13 active torsions:
REMARK  status: ('A' for Active; 'I' for Inactive)
REMARK    1  A    between atoms: C_1  and  C_2
REMARK    2  A    between atoms: C_2  and  C_3
REMARK    3  A    between atoms: C_3  and  C_4
REMARK    4  A    between atoms: C_4  and  C_5
REMARK    5  A    between atoms: C_5  and  C_6
REMARK    6  A    between atoms: C_6  and  C_7
REMARK    7  A    between atoms: C_7  and  C_8
REMARK    8  A    between atoms: C_8  and  C_9
REMARK    9  A    between atoms: C_9  and  C_10
REMARK   10  A    between atoms: C_10  and  C_11
REMARK   11  A    between atoms: C_11  and  C_12
REMARK   12  A    between atoms: C_12  and  C_13
REMARK   13  A    between atoms: C_13  and  C_14
REMARK                            x       y       z     vdW  Elec       q    Type
REMARK                         _______ _______ _______ _____ _____    ______ ____
ROOT
ATOM      1  C   UNL     1      -1.179   2.281 -22.318  0.00  0.00    +0.005 C 
ENDROOT
BRANCH   1   2
ATOM      2  C   UNL     1      -0.305   1.882 -21.443  0.00  0.00    +0.000 C 
BRANCH   2   3
ATOM      3  C   UNL     1       0.767   1.257 -21.833  0.00  0.00    +0.000 C 
BRANCH   3   4
ATOM      4  C   UNL     1       1.939   1.690 -21.475  0.00  0.00    +0.000 C 
BRANCH   4   5
ATOM      5  C   UNL     1       2.993   1.347 -22.154  0.00  0.00    +0.000 C 
BRANCH   5   6
ATOM      6  C   UNL     1       2.875   0.973 -23.393  0.00  0.00    -0.000 C 
BRANCH   6   7
ATOM      7  C   UNL     1       3.135   1.810 -24.353  0.00  0.00    -0.000 C 
BRANCH   7   8
ATOM      8  C   UNL     1       2.243   2.048 -25.267  0.00  0.00    -0.000 C 
BRANCH   8   9
ATOM      9  C   UNL     1       1.249   2.848 -25.013  0.00  0.00    -0.000 C 
BRANCH   9  10
ATOM     10  C   UNL     1       1.444   4.132 -24.966  0.00  0.00    -0.000 C 
BRANCH  10  12
ATOM     11  C   UNL     1       2.278   5.230 -23.185  0.00  0.00    +0.004 C 
ATOM     12  C   UNL     1       1.257   4.777 -23.853  0.00  0.00    -0.003 C 
ENDBRANCH  10  12
ENDBRANCH   9  10
ENDBRANCH   8   9
ENDBRANCH   7   8
ENDBRANCH   6   7
ENDBRANCH   5   6
ENDBRANCH   4   5
ENDBRANCH   3   4
ENDBRANCH   2   3
ENDBRANCH   1   2
BRANCH   1  13
ATOM     13  C   UNL     1      -1.856   3.371 -22.109  0.00  0.00    +0.038 C 
BRANCH  13  14
ATOM     14  C   UNL     1      -3.037   3.512 -22.632  0.00  0.00    -0.011 C 
ATOM     15  C   UNL     1      -4.093   3.171 -21.954  0.00  0.00    +0.169 C 
ATOM     16  C   UNL     1      -5.275   3.312 -22.478  0.00  0.00    -0.089 C 
ATOM     17  C   UNL     1      -5.401   3.795 -23.678  0.00  0.00    +0.039 C 
ATOM     18  C   UNL     1      -4.345   4.137 -24.355  0.00  0.00    +0.166 C 
ATOM     19  O   UNL     1      -4.472   4.620 -25.556  0.00  0.00    -0.289 OA
ATOM     20  O   UNL     1      -6.331   2.970 -21.800  0.00  0.00    -0.826 OA
ATOM     21  O   UNL     1      -3.967   2.688 -20.754  0.00  0.00    -0.289 OA
ATOM     22  C   UNL     1      -3.164   3.996 -23.832  0.00  0.00    -0.086 C 
ATOM     23  O   UNL     1      -2.108   4.338 -24.510  0.00  0.00    -0.826 OA
ENDBRANCH  13  14
ENDBRANCH   1  13
TORSDOF 12
ENDMDL
MODEL 6
REMARK VINA RESULT:    -7.552      2.972      6.554
REMARK INTER + INTRA:         -14.973
REMARK INTER:                 -12.552
REMARK INTRA:                  -2.422
REMARK UNBOUND:                -2.123
REMARK  Name = ZINC000038143715
REMARK  13 active torsions:
REMARK  status: ('A' for Active; 'I' for Inactive)
REMARK    1  A    between atoms: C_1  and  C_2
REMARK    2  A    between atoms: C_2  and  C_3
REMARK    3  A    between atoms: C_3  and  C_4
REMARK    4  A    between atoms: C_4  and  C_5
REMARK    5  A    between atoms: C_5  and  C_6
REMARK    6  A    between atoms: C_6  and  C_7
REMARK    7  A    between atoms: C_7  and  C_8
REMARK    8  A    between atoms: C_8  and  C_9
REMARK    9  A    between atoms: C_9  and  C_10
REMARK   10  A    between atoms: C_10  and  C_11
REMARK   11  A    between atoms: C_11  and  C_12
REMARK   12  A    between atoms: C_12  and  C_13
REMARK   13  A    between atoms: C_13  and  C_14
REMARK                            x       y       z     vdW  Elec       q    Type
REMARK                         _______ _______ _______ _____ _____    ______ ____
ROOT
ATOM      1  C   UNL     1      -1.133   2.343 -22.301  0.00  0.00    +0.005 C 
ENDROOT
BRANCH   1   2
ATOM      2  C   UNL     1      -0.264   1.954 -21.417  0.00  0.00    +0.000 C 
BRANCH   2   3
ATOM      3  C   UNL     1       0.777   1.267 -21.786  0.00  0.00    +0.000 C 
BRANCH   3   4
ATOM      4  C   UNL     1       1.968   1.654 -21.440  0.00  0.00    +0.000 C 
BRANCH   4   5
ATOM      5  C   UNL     1       3.000   1.285 -22.139  0.00  0.00    +0.000 C 
BRANCH   5   6
ATOM      6  C   UNL     1       2.846   0.897 -23.371  0.00  0.00    -0.000 C 
BRANCH   6   7
ATOM      7  C   UNL     1       3.097   1.718 -24.347  0.00  0.00    -0.000 C 
BRANCH   7   8
ATOM      8  C   UNL     1       2.191   1.949 -25.250  0.00  0.00    -0.000 C 
BRANCH   8   9
ATOM      9  C   UNL     1       1.222   2.780 -25.002  0.00  0.00    -0.000 C 
BRANCH   9  10
ATOM     10  C   UNL     1       1.450   4.059 -24.987  0.00  0.00    -0.000 C 
BRANCH  10  12
ATOM     11  C   UNL     1       2.312   5.173 -23.229  0.00  0.00    +0.004 C 
ATOM     12  C   UNL     1       1.280   4.737 -23.891  0.00  0.00    -0.003 C 
ENDBRANCH  10  12
ENDBRANCH   9  10
ENDBRANCH   8   9
ENDBRANCH   7   8
ENDBRANCH   6   7
ENDBRANCH   5   6
ENDBRANCH   4   5
ENDBRANCH   3   4
ENDBRANCH   2   3
ENDBRANCH   1   2
BRANCH   1  13
ATOM     13  C   UNL     1      -1.828   3.422 -22.096  0.00  0.00    +0.038 C 
BRANCH  13  14
ATOM     14  C   UNL     1      -3.003   3.550 -22.638  0.00  0.00    -0.011 C 
ATOM     15  C   UNL     1      -3.114   4.010 -23.849  0.00  0.00    +0.169 C 
ATOM     16  C   UNL     1      -4.289   4.138 -24.391  0.00  0.00    -0.089 C 
ATOM     17  C   UNL     1      -5.353   3.807 -23.721  0.00  0.00    +0.039 C 
ATOM     18  C   UNL     1      -5.242   3.348 -22.510  0.00  0.00    +0.166 C 
ATOM     19  O   UNL     1      -6.307   3.016 -21.840  0.00  0.00    -0.289 OA
ATOM     20  O   UNL     1      -4.400   4.597 -25.602  0.00  0.00    -0.826 OA
ATOM     21  O   UNL     1      -2.050   4.341 -24.519  0.00  0.00    -0.289 OA
ATOM     22  C   UNL     1      -4.068   3.219 -21.968  0.00  0.00    -0.086 C 
ATOM     23  O   UNL     1      -3.957   2.760 -20.757  0.00  0.00    -0.826 OA
ENDBRANCH  13  14
ENDBRANCH   1  13
TORSDOF 12
ENDMDL
MODEL 7
REMARK VINA RESULT:    -7.443      1.777      3.248
REMARK INTER + INTRA:         -14.788
REMARK INTER:                 -12.938
REMARK INTRA:                  -1.850
REMARK UNBOUND:                -2.123
REMARK  Name = ZINC000038143715
REMARK  13 active torsions:
REMARK  status: ('A' for Active; 'I' for Inactive)
REMARK    1  A    between atoms: C_1  and  C_2
REMARK    2  A    between atoms: C_2  and  C_3
REMARK    3  A    between atoms: C_3  and  C_4
REMARK    4  A    between atoms: C_4  and  C_5
REMARK    5  A    between atoms: C_5  and  C_6
REMARK    6  A    between atoms: C_6  and  C_7
REMARK    7  A    between atoms: C_7  and  C_8
REMARK    8  A    between atoms: C_8  and  C_9
REMARK    9  A    between atoms: C_9  and  C_10
REMARK   10  A    between atoms: C_10  and  C_11
REMARK   11  A    between atoms: C_11  and  C_12
REMARK   12  A    between atoms: C_12  and  C_13
REMARK   13  A    between atoms: C_13  and  C_14
REMARK                            x       y       z     vdW  Elec       q    Type
REMARK                         _______ _______ _______ _____ _____    ______ ____
ROOT
ATOM      1  C   UNL     1       0.823   4.865 -23.548  0.00  0.00    +0.005 C 
ENDROOT
BRANCH   1   2
ATOM      2  C   UNL     1      -0.445   4.638 -23.720  0.00  0.00    +0.000 C 
BRANCH   2   3
ATOM      3  C   UNL     1      -0.864   4.083 -24.819  0.00  0.00    +0.000 C 
BRANCH   3   4
ATOM      4  C   UNL     1      -2.127   3.823 -24.976  0.00  0.00    +0.000 C 
BRANCH   4   5
ATOM      5  C   UNL     1      -3.018   4.720 -24.675  0.00  0.00    +0.000 C 
BRANCH   5   6
ATOM      6  C   UNL     1      -4.284   4.437 -24.770  0.00  0.00    -0.000 C 
BRANCH   6   7
ATOM      7  C   UNL     1      -4.800   3.504 -24.027  0.00  0.00    -0.000 C 
BRANCH   7   8
ATOM      8  C   UNL     1      -5.091   3.750 -22.784  0.00  0.00    -0.000 C 
BRANCH   8   9
ATOM      9  C   UNL     1      -4.694   2.937 -21.850  0.00  0.00    -0.000 C 
BRANCH   9  10
ATOM     10  C   UNL     1      -3.895   3.361 -20.916  0.00  0.00    -0.000 C 
BRANCH  10  12
ATOM     11  C   UNL     1      -2.066   2.239 -21.597  0.00  0.00    +0.004 C 
ATOM     12  C   UNL     1      -2.608   3.306 -21.087  0.00  0.00    -0.003 C 
ENDBRANCH  10  12
ENDBRANCH   9  10
ENDBRANCH   8   9
ENDBRANCH   7   8
ENDBRANCH   6   7
ENDBRANCH   5   6
ENDBRANCH   4   5
ENDBRANCH   3   4
ENDBRANCH   2   3
ENDBRANCH   1   2
BRANCH   1  13
ATOM     13  C   UNL     1       1.703   4.144 -24.177  0.00  0.00    +0.038 C 
BRANCH  13  14
ATOM     14  C   UNL     1       2.476   3.338 -23.513  0.00  0.00    -0.011 C 
ATOM     15  C   UNL     1       2.195   2.070 -23.454  0.00  0.00    +0.169 C 
ATOM     16  C   UNL     1       2.968   1.263 -22.790  0.00  0.00    -0.089 C 
ATOM     17  C   UNL     1       4.023   1.724 -22.185  0.00  0.00    +0.039 C 
ATOM     18  C   UNL     1       4.304   2.992 -22.244  0.00  0.00    +0.166 C 
ATOM     19  O   UNL     1       5.359   3.452 -21.638  0.00  0.00    -0.289 OA
ATOM     20  O   UNL     1       2.687  -0.005 -22.730  0.00  0.00    -0.826 OA
ATOM     21  O   UNL     1       1.141   1.609 -24.059  0.00  0.00    -0.289 OA
ATOM     22  C   UNL     1       3.531   3.798 -22.908  0.00  0.00    -0.086 C 
ATOM     23  O   UNL     1       3.812   5.066 -22.967  0.00  0.00    -0.826 OA
ENDBRANCH  13  14
ENDBRANCH   1  13
TORSDOF 12
ENDMDL
MODEL 8
REMARK VINA RESULT:    -7.253      1.732      2.985
REMARK INTER + INTRA:         -14.465
REMARK INTER:                 -12.658
REMARK INTRA:                  -1.806
REMARK UNBOUND:                -2.123
REMARK  Name = ZINC000038143715
REMARK  13 active torsions:
REMARK  status: ('A' for Active; 'I' for Inactive)
REMARK    1  A    between atoms: C_1  and  C_2
REMARK    2  A    between atoms: C_2  and  C_3
REMARK    3  A    between atoms: C_3  and  C_4
REMARK    4  A    between atoms: C_4  and  C_5
REMARK    5  A    between atoms: C_5  and  C_6
REMARK    6  A    between atoms: C_6  and  C_7
REMARK    7  A    between atoms: C_7  and  C_8
REMARK    8  A    between atoms: C_8  and  C_9
REMARK    9  A    between atoms: C_9  and  C_10
REMARK   10  A    between atoms: C_10  and  C_11
REMARK   11  A    between atoms: C_11  and  C_12
REMARK   12  A    between atoms: C_12  and  C_13
REMARK   13  A    between atoms: C_13  and  C_14
REMARK                            x       y       z     vdW  Elec       q    Type
REMARK                         _______ _______ _______ _____ _____    ______ ____
ROOT
ATOM      1  C   UNL     1       0.259   2.467 -22.625  0.00  0.00    +0.005 C 
ENDROOT
BRANCH   1   2
ATOM      2  C   UNL     1      -0.944   2.734 -23.038  0.00  0.00    +0.000 C 
BRANCH   2   3
ATOM      3  C   UNL     1      -1.171   3.814 -23.725  0.00  0.00    +0.000 C 
BRANCH   3   4
ATOM      4  C   UNL     1      -1.742   3.737 -24.890  0.00  0.00    +0.000 C 
BRANCH   4   5
ATOM      5  C   UNL     1      -2.944   3.254 -24.993  0.00  0.00    +0.000 C 
BRANCH   5   6
ATOM      6  C   UNL     1      -3.940   4.042 -25.273  0.00  0.00    -0.000 C 
BRANCH   6   7
ATOM      7  C   UNL     1      -4.738   4.443 -24.329  0.00  0.00    -0.000 C 
BRANCH   7   8
ATOM      8  C   UNL     1      -5.270   3.578 -23.517  0.00  0.00    -0.000 C 
BRANCH   8   9
ATOM      9  C   UNL     1      -5.058   3.671 -22.237  0.00  0.00    -0.000 C 
BRANCH   9  10
ATOM     10  C   UNL     1      -4.591   2.651 -21.580  0.00  0.00    -0.000 C 
BRANCH  10  12
ATOM     11  C   UNL     1      -3.208   4.018 -20.444  0.00  0.00    +0.004 C 
ATOM     12  C   UNL     1      -3.669   2.825 -20.681  0.00  0.00    -0.003 C 
ENDBRANCH  10  12
ENDBRANCH   9  10
ENDBRANCH   8   9
ENDBRANCH   7   8
ENDBRANCH   6   7
ENDBRANCH   5   6
ENDBRANCH   4   5
ENDBRANCH   3   4
ENDBRANCH   2   3
ENDBRANCH   1   2
BRANCH   1  13
ATOM     13  C   UNL     1       1.190   2.171 -23.483  0.00  0.00    +0.038 C 
BRANCH  13  14
ATOM     14  C   UNL     1       2.440   2.339 -23.170  0.00  0.00    -0.011 C 
ATOM     15  C   UNL     1       2.950   3.535 -23.148  0.00  0.00    +0.169 C 
ATOM     16  C   UNL     1       4.201   3.703 -22.834  0.00  0.00    -0.089 C 
ATOM     17  C   UNL     1       4.941   2.675 -22.542  0.00  0.00    +0.039 C 
ATOM     18  C   UNL     1       4.431   1.479 -22.563  0.00  0.00    +0.166 C 
ATOM     19  O   UNL     1       5.172   0.451 -22.270  0.00  0.00    -0.289 OA
ATOM     20  O   UNL     1       4.710   4.898 -22.813  0.00  0.00    -0.826 OA
ATOM     21  O   UNL     1       2.210   4.563 -23.441  0.00  0.00    -0.289 OA
ATOM     22  C   UNL     1       3.181   1.311 -22.877  0.00  0.00    -0.086 C 
ATOM     23  O   UNL     1       2.671   0.116 -22.898  0.00  0.00    -0.826 OA
ENDBRANCH  13  14
ENDBRANCH   1  13
TORSDOF 12
ENDMDL
MODEL 9
REMARK VINA RESULT:    -6.949      2.799      7.335
REMARK INTER + INTRA:         -13.947
REMARK INTER:                 -11.824
REMARK INTRA:                  -2.123
REMARK UNBOUND:                -2.123
REMARK  Name = ZINC000038143715
REMARK  13 active torsions:
REMARK  status: ('A' for Active; 'I' for Inactive)
REMARK    1  A    between atoms: C_1  and  C_2
REMARK    2  A    between atoms: C_2  and  C_3
REMARK    3  A    between atoms: C_3  and  C_4
REMARK    4  A    between atoms: C_4  and  C_5
REMARK    5  A    between atoms: C_5  and  C_6
REMARK    6  A    between atoms: C_6  and  C_7
REMARK    7  A    between atoms: C_7  and  C_8
REMARK    8  A    between atoms: C_8  and  C_9
REMARK    9  A    between atoms: C_9  and  C_10
REMARK   10  A    between atoms: C_10  and  C_11
REMARK   11  A    between atoms: C_11  and  C_12
REMARK   12  A    between atoms: C_12  and  C_13
REMARK   13  A    between atoms: C_13  and  C_14
REMARK                            x       y       z     vdW  Elec       q    Type
REMARK                         _______ _______ _______ _____ _____    ______ ____
ROOT
ATOM      1  C   UNL     1      -0.827   4.797 -22.877  0.00  0.00    +0.005 C 
ENDROOT
BRANCH   1   2
ATOM      2  C   UNL     1       0.407   4.915 -23.268  0.00  0.00    +0.000 C 
BRANCH   2   3
ATOM      3  C   UNL     1       0.784   4.397 -24.400  0.00  0.00    +0.000 C 
BRANCH   3   4
ATOM      4  C   UNL     1       1.880   3.701 -24.464  0.00  0.00    +0.000 C 
BRANCH   4   5
ATOM      5  C   UNL     1       1.902   2.585 -25.130  0.00  0.00    +0.000 C 
BRANCH   5   6
ATOM      6  C   UNL     1       2.795   1.681 -24.853  0.00  0.00    -0.000 C 
BRANCH   6   7
ATOM      7  C   UNL     1       3.588   1.840 -23.836  0.00  0.00    -0.000 C 
BRANCH   7   8
ATOM      8  C   UNL     1       3.698   0.901 -22.944  0.00  0.00    -0.000 C 
BRANCH   8   9
ATOM      9  C   UNL     1       2.708   0.651 -22.139  0.00  0.00    -0.000 C 
BRANCH   9  10
ATOM     10  C   UNL     1       2.289   1.568 -21.319  0.00  0.00    -0.000 C 
BRANCH  10  12
ATOM     11  C   UNL     1       0.137   1.144 -21.829  0.00  0.00    +0.004 C 
ATOM     12  C   UNL     1       1.026   1.646 -21.023  0.00  0.00    -0.003 C 
ENDBRANCH  10  12
ENDBRANCH   9  10
ENDBRANCH   8   9
ENDBRANCH   7   8
ENDBRANCH   6   7
ENDBRANCH   5   6
ENDBRANCH   4   5
ENDBRANCH   3   4
ENDBRANCH   2   3
ENDBRANCH   1   2
BRANCH   1  13
ATOM     13  C   UNL     1      -1.468   3.684 -23.078  0.00  0.00    +0.038 C 
BRANCH  13  14
ATOM     14  C   UNL     1      -2.763   3.691 -23.182  0.00  0.00    -0.011 C 
ATOM     15  C   UNL     1      -3.498   3.325 -22.174  0.00  0.00    +0.169 C 
ATOM     16  C   UNL     1      -4.795   3.331 -22.279  0.00  0.00    -0.089 C 
ATOM     17  C   UNL     1      -5.355   3.704 -23.391  0.00  0.00    +0.039 C 
ATOM     18  C   UNL     1      -4.620   4.070 -24.399  0.00  0.00    +0.166 C 
ATOM     19  O   UNL     1      -5.182   4.443 -25.511  0.00  0.00    -0.289 OA
ATOM     20  O   UNL     1      -5.529   2.965 -21.271  0.00  0.00    -0.826 OA
ATOM     21  O   UNL     1      -2.938   2.952 -21.062  0.00  0.00    -0.289 OA
ATOM     22  C   UNL     1      -3.325   4.063 -24.295  0.00  0.00    -0.086 C 
ATOM     23  O   UNL     1      -2.590   4.429 -25.303  0.00  0.00    -0.826 OA
ENDBRANCH  13  14
ENDBRANCH   1  13
TORSDOF 12
ENDMDL
