MODEL 1
REMARK VINA RESULT:   -10.523      0.000      0.000
REMARK INTER + INTRA:         -10.831
REMARK INTER:                 -10.831
REMARK INTRA:                   0.000
REMARK UNBOUND:                 0.000
REMARK  Name = C=C1C(=O)O[C@H]2/C=C(\C)[C@@H](O)C/C=C(\C)CC[C@@H]12                 ZINC000100392380
REMARK  3 active torsions:
REMARK  status: ('A' for Active; 'I' for Inactive)
REMARK    1  A    between atoms: C_8  and  C_9
REMARK    2  A    between atoms: C_10  and  O_11
REMARK    3  A    between atoms: C_14  and  C_15
REMARK                            x       y       z     vdW  Elec       q    Type
REMARK                         _______ _______ _______ _____ _____    ______ ____
ROOT
ATOM      1  C   UNL     1       0.645   1.503 -21.193  0.00  0.00    +0.020 C 
ATOM      2  C   UNL     1      -0.080   1.956 -22.175  0.00  0.00    +0.036 C 
ATOM      3  C   UNL     1       0.323   2.144 -23.400  0.00  0.00    +0.336 C 
ATOM      4  O   UNL     1      -0.680   2.605 -24.091  0.00  0.00    -0.453 OA
ATOM      5  C   UNL     1      -1.705   2.702 -23.290  0.00  0.00    +0.207 C 
ATOM      6  C   UNL     1      -2.790   3.059 -23.464  0.00  0.00    +0.019 C 
ATOM      7  C   UNL     1      -3.207   3.466 -24.619  0.00  0.00    -0.045 C 
ATOM      8  C   UNL     1      -4.510   3.882 -24.778  0.00  0.00    +0.144 C 
ATOM      9  C   UNL     1      -5.466   3.898 -23.732  0.00  0.00    +0.063 C 
ATOM     10  C   UNL     1      -5.209   3.508 -22.456  0.00  0.00    -0.025 C 
ATOM     11  C   UNL     1      -4.081   3.131 -22.250  0.00  0.00    -0.076 C 
ATOM     12  C   UNL     1      -3.579   2.706 -21.123  0.00  0.00    +0.031 C 
ATOM     13  C   UNL     1      -2.239   2.299 -21.043  0.00  0.00    +0.016 C 
ATOM     14  C   UNL     1      -3.464   3.161 -23.090  0.00  0.00    +0.039 C 
ATOM     15  C   UNL     1      -2.388   3.484 -25.642  0.00  0.00    +0.041 C 
ATOM     16  O   UNL     1       1.521   1.911 -23.859  0.00  0.00    -0.245 OA
ATOM     17  C   UNL     1      -1.335   2.303 -22.110  0.00  0.00    +0.070 C 
ENDROOT
BRANCH   8  18
ATOM     18  O   UNL     1      -4.887   4.286 -25.967  0.00  0.00    -0.387 OA
ATOM     19  H   UNL     1      -4.517   5.166 -26.142  0.00  0.00    +0.210 HD
ENDBRANCH   8  18
TORSDOF 1
ENDMDL
MODEL 2
REMARK VINA RESULT:   -10.385      1.635      2.756
REMARK INTER + INTRA:         -10.688
REMARK INTER:                 -10.688
REMARK INTRA:                   0.000
REMARK UNBOUND:                 0.000
REMARK  Name = C=C1C(=O)O[C@H]2/C=C(\C)[C@@H](O)C/C=C(\C)CC[C@@H]12                 ZINC000100392380
REMARK  3 active torsions:
REMARK  status: ('A' for Active; 'I' for Inactive)
REMARK    1  A    between atoms: C_8  and  C_9
REMARK    2  A    between atoms: C_10  and  O_11
REMARK    3  A    between atoms: C_14  and  C_15
REMARK                            x       y       z     vdW  Elec       q    Type
REMARK                         _______ _______ _______ _____ _____    ______ ____
ROOT
ATOM      1  C   UNL     1       1.483   2.129 -22.923  0.00  0.00    +0.020 C 
ATOM      2  C   UNL     1       0.246   2.241 -22.533  0.00  0.00    +0.036 C 
ATOM      3  C   UNL     1      -0.225   1.879 -21.372  0.00  0.00    +0.336 C 
ATOM      4  O   UNL     1      -1.499   2.146 -21.350  0.00  0.00    -0.453 OA
ATOM      5  C   UNL     1      -1.816   2.674 -22.500  0.00  0.00    +0.207 C 
ATOM      6  C   UNL     1      -2.819   3.060 -22.923  0.00  0.00    +0.019 C 
ATOM      7  C   UNL     1      -3.917   3.024 -22.239  0.00  0.00    -0.045 C 
ATOM      8  C   UNL     1      -5.090   3.496 -22.785  0.00  0.00    +0.144 C 
ATOM      9  C   UNL     1      -5.189   4.038 -24.090  0.00  0.00    +0.063 C 
ATOM     10  C   UNL     1      -4.144   4.156 -24.951  0.00  0.00    -0.025 C 
ATOM     11  C   UNL     1      -3.084   3.759 -24.531  0.00  0.00    -0.076 C 
ATOM     12  C   UNL     1      -1.936   3.758 -25.150  0.00  0.00    +0.031 C 
ATOM     13  C   UNL     1      -0.784   3.258 -24.523  0.00  0.00    +0.016 C 
ATOM     14  C   UNL     1      -3.128   3.381 -23.561  0.00  0.00    +0.039 C 
ATOM     15  C   UNL     1      -3.915   2.537 -21.021  0.00  0.00    +0.041 C 
ATOM     16  O   UNL     1       0.458   1.343 -20.399  0.00  0.00    -0.245 OA
ATOM     17  C   UNL     1      -0.741   2.732 -23.228  0.00  0.00    +0.070 C 
ENDROOT
BRANCH   8  18
ATOM     18  O   UNL     1      -6.177   3.439 -22.054  0.00  0.00    -0.387 OA
ATOM     19  H   UNL     1      -6.692   2.655 -22.301  0.00  0.00    +0.210 HD
ENDBRANCH   8  18
TORSDOF 1
ENDMDL
MODEL 3
REMARK VINA RESULT:    -9.465      1.189      4.590
REMARK INTER + INTRA:          -9.741
REMARK INTER:                  -9.741
REMARK INTRA:                   0.000
REMARK UNBOUND:                 0.000
REMARK  Name = C=C1C(=O)O[C@H]2/C=C(\C)[C@@H](O)C/C=C(\C)CC[C@@H]12                 ZINC000100392380
REMARK  3 active torsions:
REMARK  status: ('A' for Active; 'I' for Inactive)
REMARK    1  A    between atoms: C_8  and  C_9
REMARK    2  A    between atoms: C_10  and  O_11
REMARK    3  A    between atoms: C_14  and  C_15
REMARK                            x       y       z     vdW  Elec       q    Type
REMARK                         _______ _______ _______ _____ _____    ______ ____
ROOT
ATOM      1  C   UNL     1      -5.187   3.749 -23.253  0.00  0.00    +0.020 C 
ATOM      2  C   UNL     1      -3.958   3.707 -23.679  0.00  0.00    +0.036 C 
ATOM      3  C   UNL     1      -3.514   4.237 -24.784  0.00  0.00    +0.336 C 
ATOM      4  O   UNL     1      -2.238   3.989 -24.869  0.00  0.00    -0.453 OA
ATOM      5  C   UNL     1      -1.894   3.305 -23.813  0.00  0.00    +0.207 C 
ATOM      6  C   UNL     1      -0.880   2.872 -23.470  0.00  0.00    +0.019 C 
ATOM      7  C   UNL     1       0.203   3.017 -24.163  0.00  0.00    -0.045 C 
ATOM      8  C   UNL     1       1.391   2.484 -23.713  0.00  0.00    +0.144 C 
ATOM      9  C   UNL     1       1.521   1.760 -22.502  0.00  0.00    +0.063 C 
ATOM     10  C   UNL     1       0.495   1.509 -21.647  0.00  0.00    -0.025 C 
ATOM     11  C   UNL     1      -0.577   1.952 -21.985  0.00  0.00    -0.076 C 
ATOM     12  C   UNL     1      -1.712   1.852 -21.350  0.00  0.00    +0.031 C 
ATOM     13  C   UNL     1      -2.880   2.425 -21.876  0.00  0.00    +0.016 C 
ATOM     14  C   UNL     1      -0.555   2.466 -22.891  0.00  0.00    +0.039 C 
ATOM     15  C   UNL     1       0.173   3.674 -25.297  0.00  0.00    +0.041 C 
ATOM     16  O   UNL     1      -4.220   4.900 -25.657  0.00  0.00    -0.245 OA
ATOM     17  C   UNL     1      -2.953   3.131 -23.080  0.00  0.00    +0.070 C 
ENDROOT
BRANCH   8  18
ATOM     18  O   UNL     1       2.462   2.656 -24.449  0.00  0.00    -0.387 OA
ATOM     19  H   UNL     1       2.487   1.983 -25.146  0.00  0.00    +0.210 HD
ENDBRANCH   8  18
TORSDOF 1
ENDMDL
MODEL 4
REMARK VINA RESULT:    -9.245      1.800      5.005
REMARK INTER + INTRA:          -9.516
REMARK INTER:                  -9.516
REMARK INTRA:                   0.000
REMARK UNBOUND:                 0.000
REMARK  Name = C=C1C(=O)O[C@H]2/C=C(\C)[C@@H](O)C/C=C(\C)CC[C@@H]12                 ZINC000100392380
REMARK  3 active torsions:
REMARK  status: ('A' for Active; 'I' for Inactive)
REMARK    1  A    between atoms: C_8  and  C_9
REMARK    2  A    between atoms: C_10  and  O_11
REMARK    3  A    between atoms: C_14  and  C_15
REMARK                            x       y       z     vdW  Elec       q    Type
REMARK                         _______ _______ _______ _____ _____    ______ ____
ROOT
ATOM      1  C   UNL     1      -5.329   3.457 -22.665  0.00  0.00    +0.020 C 
ATOM      2  C   UNL     1      -4.119   3.054 -22.407  0.00  0.00    +0.036 C 
ATOM      3  C   UNL     1      -3.734   2.429 -21.330  0.00  0.00    +0.336 C 
ATOM      4  O   UNL     1      -2.457   2.192 -21.432  0.00  0.00    -0.453 OA
ATOM      5  C   UNL     1      -2.053   2.671 -22.575  0.00  0.00    +0.207 C 
ATOM      6  C   UNL     1      -1.016   2.690 -23.082  0.00  0.00    +0.019 C 
ATOM      7  C   UNL     1       0.034   2.175 -22.526  0.00  0.00    -0.045 C 
ATOM      8  C   UNL     1       1.251   2.221 -23.169  0.00  0.00    +0.144 C 
ATOM      9  C   UNL     1       1.449   2.812 -24.441  0.00  0.00    +0.063 C 
ATOM     10  C   UNL     1       0.466   3.399 -25.173  0.00  0.00    -0.025 C 
ATOM     11  C   UNL     1      -0.629   3.392 -24.664  0.00  0.00    -0.076 C 
ATOM     12  C   UNL     1      -1.734   3.886 -25.151  0.00  0.00    +0.031 C 
ATOM     13  C   UNL     1      -2.936   3.799 -24.433  0.00  0.00    +0.016 C 
ATOM     14  C   UNL     1      -0.658   2.932 -23.729  0.00  0.00    +0.039 C 
ATOM     15  C   UNL     1      -0.060   1.608 -21.348  0.00  0.00    +0.041 C 
ATOM     16  O   UNL     1      -4.491   2.097 -20.322  0.00  0.00    -0.245 OA
ATOM     17  C   UNL     1      -3.076   3.203 -23.176  0.00  0.00    +0.070 C 
ENDROOT
BRANCH   8  18
ATOM     18  O   UNL     1       2.286   1.686 -22.566  0.00  0.00    -0.387 OA
ATOM     19  H   UNL     1       2.313   1.986 -21.644  0.00  0.00    +0.210 HD
ENDBRANCH   8  18
TORSDOF 1
ENDMDL
MODEL 5
REMARK VINA RESULT:    -9.099      1.725      5.348
REMARK INTER + INTRA:          -9.365
REMARK INTER:                  -9.365
REMARK INTRA:                   0.000
REMARK UNBOUND:                 0.000
REMARK  Name = C=C1C(=O)O[C@H]2/C=C(\C)[C@@H](O)C/C=C(\C)CC[C@@H]12                 ZINC000100392380
REMARK  3 active torsions:
REMARK  status: ('A' for Active; 'I' for Inactive)
REMARK    1  A    between atoms: C_8  and  C_9
REMARK    2  A    between atoms: C_10  and  O_11
REMARK    3  A    between atoms: C_14  and  C_15
REMARK                            x       y       z     vdW  Elec       q    Type
REMARK                         _______ _______ _______ _____ _____    ______ ____
ROOT
ATOM      1  C   UNL     1      -4.543   4.068 -24.443  0.00  0.00    +0.020 C 
ATOM      2  C   UNL     1      -3.615   3.490 -23.738  0.00  0.00    +0.036 C 
ATOM      3  C   UNL     1      -3.777   2.928 -22.573  0.00  0.00    +0.336 C 
ATOM      4  O   UNL     1      -2.626   2.462 -22.182  0.00  0.00    -0.453 OA
ATOM      5  C   UNL     1      -1.750   2.736 -23.109  0.00  0.00    +0.207 C 
ATOM      6  C   UNL     1      -0.619   2.518 -23.192  0.00  0.00    +0.019 C 
ATOM      7  C   UNL     1       0.033   1.891 -22.267  0.00  0.00    -0.045 C 
ATOM      8  C   UNL     1       1.382   1.653 -22.409  0.00  0.00    +0.144 C 
ATOM      9  C   UNL     1       2.139   2.058 -23.537  0.00  0.00    +0.063 C 
ATOM     10  C   UNL     1       1.625   2.725 -24.603  0.00  0.00    -0.025 C 
ATOM     11  C   UNL     1       0.444   2.965 -24.539  0.00  0.00    -0.076 C 
ATOM     12  C   UNL     1      -0.288   3.588 -25.422  0.00  0.00    +0.031 C 
ATOM     13  C   UNL     1      -1.659   3.792 -25.201  0.00  0.00    +0.016 C 
ATOM     14  C   UNL     1      -0.011   2.622 -23.667  0.00  0.00    +0.039 C 
ATOM     15  C   UNL     1      -0.590   1.480 -21.189  0.00  0.00    +0.041 C 
ATOM     16  O   UNL     1      -4.897   2.845 -21.909  0.00  0.00    -0.245 OA
ATOM     17  C   UNL     1      -2.359   3.370 -24.067  0.00  0.00    +0.070 C 
ENDROOT
BRANCH   8  18
ATOM     18  O   UNL     1       2.001   1.014 -21.446  0.00  0.00    -0.387 OA
ATOM     19  H   UNL     1       1.450   1.022 -20.647  0.00  0.00    +0.210 HD
ENDBRANCH   8  18
TORSDOF 1
ENDMDL
MODEL 6
REMARK VINA RESULT:    -8.673      1.350      2.110
REMARK INTER + INTRA:          -8.927
REMARK INTER:                  -8.927
REMARK INTRA:                   0.000
REMARK UNBOUND:                 0.000
REMARK  Name = C=C1C(=O)O[C@H]2/C=C(\C)[C@@H](O)C/C=C(\C)CC[C@@H]12                 ZINC000100392380
REMARK  3 active torsions:
REMARK  status: ('A' for Active; 'I' for Inactive)
REMARK    1  A    between atoms: C_8  and  C_9
REMARK    2  A    between atoms: C_10  and  O_11
REMARK    3  A    between atoms: C_14  and  C_15
REMARK                            x       y       z     vdW  Elec       q    Type
REMARK                         _______ _______ _______ _____ _____    ______ ____
ROOT
ATOM      1  C   UNL     1       2.893   0.899 -21.875  0.00  0.00    +0.020 C 
ATOM      2  C   UNL     1       2.061   1.524 -22.656  0.00  0.00    +0.036 C 
ATOM      3  C   UNL     1       2.333   2.003 -23.838  0.00  0.00    +0.336 C 
ATOM      4  O   UNL     1       1.254   2.557 -24.311  0.00  0.00    -0.453 OA
ATOM      5  C   UNL     1       0.312   2.419 -23.419  0.00  0.00    +0.207 C 
ATOM      6  C   UNL     1      -0.795   2.750 -23.406  0.00  0.00    +0.019 C 
ATOM      7  C   UNL     1      -1.337   3.385 -24.394  0.00  0.00    -0.045 C 
ATOM      8  C   UNL     1      -2.661   3.760 -24.335  0.00  0.00    +0.144 C 
ATOM      9  C   UNL     1      -3.507   3.492 -23.230  0.00  0.00    +0.063 C 
ATOM     10  C   UNL     1      -3.112   2.837 -22.107  0.00  0.00    -0.025 C 
ATOM     11  C   UNL     1      -1.959   2.481 -22.096  0.00  0.00    -0.076 C 
ATOM     12  C   UNL     1      -1.335   1.840 -21.146  0.00  0.00    +0.031 C 
ATOM     13  C   UNL     1       0.018   1.493 -21.284  0.00  0.00    +0.016 C 
ATOM     14  C   UNL     1      -1.431   2.731 -22.959  0.00  0.00    +0.039 C 
ATOM     15  C   UNL     1      -0.626   3.674 -25.457  0.00  0.00    +0.041 C 
ATOM     16  O   UNL     1       3.486   1.941 -24.445  0.00  0.00    -0.245 OA
ATOM     17  C   UNL     1       0.809   1.783 -22.400  0.00  0.00    +0.070 C 
ENDROOT
BRANCH   8  18
ATOM     18  O   UNL     1      -3.167   4.401 -25.360  0.00  0.00    -0.387 OA
ATOM     19  H   UNL     1      -3.465   3.762 -26.026  0.00  0.00    +0.210 HD
ENDBRANCH   8  18
TORSDOF 1
ENDMDL
MODEL 7
REMARK VINA RESULT:    -8.307      1.868      5.559
REMARK INTER + INTRA:          -8.549
REMARK INTER:                  -8.549
REMARK INTRA:                   0.000
REMARK UNBOUND:                 0.000
REMARK  Name = C=C1C(=O)O[C@H]2/C=C(\C)[C@@H](O)C/C=C(\C)CC[C@@H]12                 ZINC000100392380
REMARK  3 active torsions:
REMARK  status: ('A' for Active; 'I' for Inactive)
REMARK    1  A    between atoms: C_8  and  C_9
REMARK    2  A    between atoms: C_10  and  O_11
REMARK    3  A    between atoms: C_14  and  C_15
REMARK                            x       y       z     vdW  Elec       q    Type
REMARK                         _______ _______ _______ _____ _____    ______ ____
ROOT
ATOM      1  C   UNL     1      -2.896   2.615 -21.904  0.00  0.00    +0.020 C 
ATOM      2  C   UNL     1      -1.792   2.569 -22.592  0.00  0.00    +0.036 C 
ATOM      3  C   UNL     1      -1.663   2.877 -23.852  0.00  0.00    +0.336 C 
ATOM      4  O   UNL     1      -0.416   2.708 -24.186  0.00  0.00    -0.453 OA
ATOM      5  C   UNL     1       0.227   2.293 -23.129  0.00  0.00    +0.207 C 
ATOM      6  C   UNL     1       1.335   2.018 -22.958  0.00  0.00    +0.019 C 
ATOM      7  C   UNL     1       2.218   2.086 -23.901  0.00  0.00    -0.045 C 
ATOM      8  C   UNL     1       3.529   1.748 -23.650  0.00  0.00    +0.144 C 
ATOM      9  C   UNL     1       4.003   1.313 -22.387  0.00  0.00    +0.063 C 
ATOM     10  C   UNL     1       3.223   1.181 -21.282  0.00  0.00    -0.025 C 
ATOM     11  C   UNL     1       2.059   1.463 -21.436  0.00  0.00    -0.076 C 
ATOM     12  C   UNL     1       1.107   1.423 -20.545  0.00  0.00    +0.031 C 
ATOM     13  C   UNL     1      -0.206   1.785 -20.881  0.00  0.00    +0.016 C 
ATOM     14  C   UNL     1       1.823   1.770 -22.404  0.00  0.00    +0.039 C 
ATOM     15  C   UNL     1       1.866   2.479 -25.101  0.00  0.00    +0.041 C 
ATOM     16  O   UNL     1      -2.614   3.286 -24.645  0.00  0.00    -0.245 OA
ATOM     17  C   UNL     1      -0.621   2.208 -22.147  0.00  0.00    +0.070 C 
ENDROOT
BRANCH   8  18
ATOM     18  O   UNL     1       4.388   1.832 -24.637  0.00  0.00    -0.387 OA
ATOM     19  H   UNL     1       5.201   2.258 -24.323  0.00  0.00    +0.210 HD
ENDBRANCH   8  18
TORSDOF 1
ENDMDL
MODEL 8
REMARK VINA RESULT:    -8.239      1.920      3.921
REMARK INTER + INTRA:          -8.480
REMARK INTER:                  -8.480
REMARK INTRA:                   0.000
REMARK UNBOUND:                 0.000
REMARK  Name = C=C1C(=O)O[C@H]2/C=C(\C)[C@@H](O)C/C=C(\C)CC[C@@H]12                 ZINC000100392380
REMARK  3 active torsions:
REMARK  status: ('A' for Active; 'I' for Inactive)
REMARK    1  A    between atoms: C_8  and  C_9
REMARK    2  A    between atoms: C_10  and  O_11
REMARK    3  A    between atoms: C_14  and  C_15
REMARK                            x       y       z     vdW  Elec       q    Type
REMARK                         _______ _______ _______ _____ _____    ______ ____
ROOT
ATOM      1  C   UNL     1      -4.128   2.376 -19.697  0.00  0.00    +0.020 C 
ATOM      2  C   UNL     1      -4.052   2.610 -20.975  0.00  0.00    +0.036 C 
ATOM      3  C   UNL     1      -5.061   2.778 -21.783  0.00  0.00    +0.336 C 
ATOM      4  O   UNL     1      -4.592   2.990 -22.980  0.00  0.00    -0.453 OA
ATOM      5  C   UNL     1      -3.290   2.954 -22.910  0.00  0.00    +0.207 C 
ATOM      6  C   UNL     1      -2.470   3.087 -23.712  0.00  0.00    +0.019 C 
ATOM      7  C   UNL     1      -2.749   3.321 -24.953  0.00  0.00    -0.045 C 
ATOM      8  C   UNL     1      -1.736   3.473 -25.875  0.00  0.00    +0.144 C 
ATOM      9  C   UNL     1      -0.359   3.389 -25.553  0.00  0.00    +0.063 C 
ATOM     10  C   UNL     1       0.121   3.150 -24.305  0.00  0.00    -0.025 C 
ATOM     11  C   UNL     1      -0.718   3.007 -23.449  0.00  0.00    -0.076 C 
ATOM     12  C   UNL     1      -0.525   2.769 -22.180  0.00  0.00    +0.031 C 
ATOM     13  C   UNL     1      -1.613   2.627 -21.304  0.00  0.00    +0.016 C 
ATOM     14  C   UNL     1      -1.696   3.089 -23.798  0.00  0.00    +0.039 C 
ATOM     15  C   UNL     1      -3.998   3.415 -25.338  0.00  0.00    +0.041 C 
ATOM     16  O   UNL     1      -6.322   2.740 -21.456  0.00  0.00    -0.245 OA
ATOM     17  C   UNL     1      -2.957   2.720 -21.676  0.00  0.00    +0.070 C 
ENDROOT
BRANCH   8  18
ATOM     18  O   UNL     1      -2.068   3.709 -27.121  0.00  0.00    -0.387 OA
ATOM     19  H   UNL     1      -2.734   4.413 -27.151  0.00  0.00    +0.210 HD
ENDBRANCH   8  18
TORSDOF 1
ENDMDL
MODEL 9
REMARK VINA RESULT:    -7.716      2.653      4.403
REMARK INTER + INTRA:          -7.941
REMARK INTER:                  -7.941
REMARK INTRA:                   0.000
REMARK UNBOUND:                 0.000
REMARK  Name = C=C1C(=O)O[C@H]2/C=C(\C)[C@@H](O)C/C=C(\C)CC[C@@H]12                 ZINC000100392380
REMARK  3 active torsions:
REMARK  status: ('A' for Active; 'I' for Inactive)
REMARK    1  A    between atoms: C_8  and  C_9
REMARK    2  A    between atoms: C_10  and  O_11
REMARK    3  A    between atoms: C_14  and  C_15
REMARK                            x       y       z     vdW  Elec       q    Type
REMARK                         _______ _______ _______ _____ _____    ______ ____
ROOT
ATOM      1  C   UNL     1       5.477   2.284 -21.621  0.00  0.00    +0.020 C 
ATOM      2  C   UNL     1       4.446   2.761 -22.256  0.00  0.00    +0.036 C 
ATOM      3  C   UNL     1       4.476   3.673 -23.188  0.00  0.00    +0.336 C 
ATOM      4  O   UNL     1       3.254   3.890 -23.583  0.00  0.00    -0.453 OA
ATOM      5  C   UNL     1       2.468   3.110 -22.895  0.00  0.00    +0.207 C 
ATOM      6  C   UNL     1       1.322   2.963 -22.906  0.00  0.00    +0.019 C 
ATOM      7  C   UNL     1       0.548   3.629 -23.700  0.00  0.00    -0.045 C 
ATOM      8  C   UNL     1      -0.813   3.420 -23.678  0.00  0.00    +0.144 C 
ATOM      9  C   UNL     1      -1.454   2.494 -22.818  0.00  0.00    +0.063 C 
ATOM     10  C   UNL     1      -0.805   1.708 -21.920  0.00  0.00    -0.025 C 
ATOM     11  C   UNL     1       0.395   1.844 -21.890  0.00  0.00    -0.076 C 
ATOM     12  C   UNL     1       1.245   1.216 -21.125  0.00  0.00    +0.031 C 
ATOM     13  C   UNL     1       2.620   1.487 -21.208  0.00  0.00    +0.016 C 
ATOM     14  C   UNL     1       0.757   2.551 -22.564  0.00  0.00    +0.039 C 
ATOM     15  C   UNL     1       1.059   4.507 -24.528  0.00  0.00    +0.041 C 
ATOM     16  O   UNL     1       5.542   4.267 -23.647  0.00  0.00    -0.245 OA
ATOM     17  C   UNL     1       3.202   2.415 -22.077  0.00  0.00    +0.070 C 
ENDROOT
BRANCH   8  18
ATOM     18  O   UNL     1      -1.557   4.119 -24.501  0.00  0.00    -0.387 OA
ATOM     19  H   UNL     1      -1.004   4.473 -25.215  0.00  0.00    +0.210 HD
ENDBRANCH   8  18
TORSDOF 1
ENDMDL
