MODEL 1
REMARK VINA RESULT:    -8.729      0.000      0.000
REMARK INTER + INTRA:         -13.016
REMARK INTER:                 -14.132
REMARK INTRA:                   1.116
REMARK UNBOUND:                 1.581
REMARK  Name = ZINC000085340942
REMARK  13 active torsions:
REMARK  status: ('A' for Active; 'I' for Inactive)
REMARK    1  A    between atoms: C_1  and  C_2
REMARK    2  A    between atoms: C_2  and  C_3
REMARK    3  A    between atoms: C_3  and  C_4
REMARK    4  A    between atoms: C_4  and  C_5
REMARK    5  A    between atoms: C_5  and  C_6
REMARK    6  A    between atoms: C_6  and  C_7
REMARK    7  A    between atoms: C_7  and  C_8
REMARK    8  A    between atoms: C_8  and  C_9
REMARK    9  A    between atoms: C_9  and  C_10
REMARK   10  A    between atoms: C_10  and  C_11
REMARK   11  A    between atoms: C_11  and  C_12
REMARK   12  A    between atoms: N_16  and  C_17
REMARK   13  A    between atoms: C_26  and  O_27
REMARK                            x       y       z     vdW  Elec       q    Type
REMARK                         _______ _______ _______ _____ _____    ______ ____
ROOT
ATOM      1  C   UNL     1       2.826   3.028 -23.639  0.00  0.00    -0.008 C 
ATOM      2  C   UNL     1       4.090   3.160 -23.363  0.00  0.00    +0.207 C 
ATOM      3  C   UNL     1       4.768   2.144 -22.918  0.00  0.00    +0.115 C 
ATOM      4  C   UNL     1       4.182   0.995 -22.749  0.00  0.00    +0.076 C 
ATOM      5  C   UNL     1       2.918   0.863 -23.024  0.00  0.00    +0.106 C 
ATOM      6  N   UNL     1       6.031   2.276 -22.643  0.00  0.00    -0.242 NA
ATOM      7  O   UNL     1       4.676   4.308 -23.532  0.00  0.00    -0.285 OA
ATOM      8  C   UNL     1       2.241   1.880 -23.469  0.00  0.00    -0.091 C 
ATOM      9  O   UNL     1       0.977   1.748 -23.745  0.00  0.00    -0.826 OA
ENDROOT
BRANCH   6  10
ATOM     10  C   UNL     1       6.617   3.424 -22.812  0.00  0.00    +0.083 A 
ATOM     11  C   UNL     1       7.000   3.789 -23.999  0.00  0.00    +0.030 A 
ATOM     12  C   UNL     1       7.586   4.938 -24.169  0.00  0.00    +0.022 A 
ATOM     13  C   UNL     1       7.789   5.721 -23.151  0.00  0.00    +0.042 A 
ATOM     14  C   UNL     1       7.406   5.355 -21.963  0.00  0.00    +0.042 A 
ATOM     15 CL   UNL     1       8.375   6.868 -23.320  0.00  0.00    -0.083 Cl
ATOM     16  C   UNL     1       6.820   4.207 -21.794  0.00  0.00    +0.068 A 
ATOM     17 CL   UNL     1       6.438   3.842 -20.607  0.00  0.00    -0.081 Cl
ENDBRANCH   6  10
BRANCH   5  18
ATOM     18  O   UNL     1       2.332  -0.284 -22.855  0.00  0.00    -0.508 OA
ATOM     19  H   UNL     1       2.552  -1.008 -23.408  0.00  0.00    +0.292 HD
ENDBRANCH   5  18
BRANCH   1  20
ATOM     20  C   UNL     1       2.149   4.045 -24.084  0.00  0.00    +0.038 C 
BRANCH  20  21
ATOM     21  C   UNL     1       1.481   4.793 -23.257  0.00  0.00    +0.005 C 
BRANCH  21  22
ATOM     22  C   UNL     1       0.238   5.082 -23.500  0.00  0.00    +0.000 C 
BRANCH  22  23
ATOM     23  C   UNL     1      -0.651   4.975 -22.557  0.00  0.00    +0.000 C 
BRANCH  23  24
ATOM     24  C   UNL     1      -1.576   4.065 -22.635  0.00  0.00    +0.000 C 
BRANCH  24  25
ATOM     25  C   UNL     1      -1.656   3.139 -21.727  0.00  0.00    +0.000 C 
BRANCH  25  26
ATOM     26  C   UNL     1      -2.601   3.182 -20.836  0.00  0.00    -0.000 C 
BRANCH  26  27
ATOM     27  C   UNL     1      -3.750   3.715 -21.131  0.00  0.00    -0.000 C 
BRANCH  27  28
ATOM     28  C   UNL     1      -4.732   2.963 -21.531  0.00  0.00    -0.000 C 
BRANCH  28  30
ATOM     29  C   UNL     1      -5.216   3.799 -23.565  0.00  0.00    +0.004 C 
ATOM     30  C   UNL     1      -5.600   3.425 -22.381  0.00  0.00    -0.003 C 
ENDBRANCH  28  30
ENDBRANCH  27  28
ENDBRANCH  26  27
ENDBRANCH  25  26
ENDBRANCH  24  25
ENDBRANCH  23  24
ENDBRANCH  22  23
ENDBRANCH  21  22
ENDBRANCH  20  21
ENDBRANCH   1  20
TORSDOF 12
ENDMDL
MODEL 2
REMARK VINA RESULT:    -8.607      1.022      1.392
REMARK INTER + INTRA:         -12.813
REMARK INTER:                 -13.856
REMARK INTRA:                   1.043
REMARK UNBOUND:                 1.581
REMARK  Name = ZINC000085340942
REMARK  13 active torsions:
REMARK  status: ('A' for Active; 'I' for Inactive)
REMARK    1  A    between atoms: C_1  and  C_2
REMARK    2  A    between atoms: C_2  and  C_3
REMARK    3  A    between atoms: C_3  and  C_4
REMARK    4  A    between atoms: C_4  and  C_5
REMARK    5  A    between atoms: C_5  and  C_6
REMARK    6  A    between atoms: C_6  and  C_7
REMARK    7  A    between atoms: C_7  and  C_8
REMARK    8  A    between atoms: C_8  and  C_9
REMARK    9  A    between atoms: C_9  and  C_10
REMARK   10  A    between atoms: C_10  and  C_11
REMARK   11  A    between atoms: C_11  and  C_12
REMARK   12  A    between atoms: N_16  and  C_17
REMARK   13  A    between atoms: C_26  and  O_27
REMARK                            x       y       z     vdW  Elec       q    Type
REMARK                         _______ _______ _______ _____ _____    ______ ____
ROOT
ATOM      1  C   UNL     1       2.815   3.009 -22.817  0.00  0.00    -0.008 C 
ATOM      2  C   UNL     1       4.091   3.129 -22.601  0.00  0.00    +0.207 C 
ATOM      3  C   UNL     1       4.851   2.075 -22.594  0.00  0.00    +0.115 C 
ATOM      4  C   UNL     1       4.335   0.899 -22.804  0.00  0.00    +0.076 C 
ATOM      5  C   UNL     1       3.059   0.779 -23.020  0.00  0.00    +0.106 C 
ATOM      6  N   UNL     1       6.128   2.195 -22.378  0.00  0.00    -0.242 NA
ATOM      7  O   UNL     1       4.608   4.303 -22.391  0.00  0.00    -0.285 OA
ATOM      8  C   UNL     1       2.299   1.835 -23.026  0.00  0.00    -0.091 C 
ATOM      9  O   UNL     1       1.022   1.715 -23.242  0.00  0.00    -0.826 OA
ENDROOT
BRANCH   6  10
ATOM     10  C   UNL     1       6.644   3.369 -22.169  0.00  0.00    +0.083 A 
ATOM     11  C   UNL     1       6.621   3.885 -20.976  0.00  0.00    +0.030 A 
ATOM     12  C   UNL     1       7.138   5.060 -20.766  0.00  0.00    +0.022 A 
ATOM     13  C   UNL     1       7.677   5.718 -21.749  0.00  0.00    +0.042 A 
ATOM     14  C   UNL     1       7.699   5.202 -22.942  0.00  0.00    +0.042 A 
ATOM     15 CL   UNL     1       8.193   6.893 -21.540  0.00  0.00    -0.083 Cl
ATOM     16  C   UNL     1       7.183   4.027 -23.152  0.00  0.00    +0.068 A 
ATOM     17 CL   UNL     1       7.205   3.511 -24.344  0.00  0.00    -0.081 Cl
ENDBRANCH   6  10
BRANCH   5  18
ATOM     18  O   UNL     1       2.542  -0.395 -23.229  0.00  0.00    -0.508 OA
ATOM     19  H   UNL     1       1.746  -0.639 -22.801  0.00  0.00    +0.292 HD
ENDBRANCH   5  18
BRANCH   1  20
ATOM     20  C   UNL     1       2.055   4.064 -22.823  0.00  0.00    +0.038 C 
BRANCH  20  21
ATOM     21  C   UNL     1       1.740   4.632 -23.949  0.00  0.00    +0.005 C 
BRANCH  21  22
ATOM     22  C   UNL     1       0.500   4.927 -24.204  0.00  0.00    +0.000 C 
BRANCH  22  23
ATOM     23  C   UNL     1      -0.370   4.961 -23.240  0.00  0.00    +0.000 C 
BRANCH  23  24
ATOM     24  C   UNL     1      -1.542   4.421 -23.403  0.00  0.00    +0.000 C 
BRANCH  24  25
ATOM     25  C   UNL     1      -1.889   3.391 -22.690  0.00  0.00    +0.000 C 
BRANCH  25  26
ATOM     26  C   UNL     1      -2.015   3.504 -21.402  0.00  0.00    -0.000 C 
BRANCH  26  27
ATOM     27  C   UNL     1      -3.192   3.424 -20.854  0.00  0.00    -0.000 C 
BRANCH  27  28
ATOM     28  C   UNL     1      -4.103   2.659 -21.379  0.00  0.00    -0.000 C 
BRANCH  28  30
ATOM     29  C   UNL     1      -5.580   3.547 -22.828  0.00  0.00    +0.004 C 
ATOM     30  C   UNL     1      -5.286   3.135 -21.630  0.00  0.00    -0.003 C 
ENDBRANCH  28  30
ENDBRANCH  27  28
ENDBRANCH  26  27
ENDBRANCH  25  26
ENDBRANCH  24  25
ENDBRANCH  23  24
ENDBRANCH  22  23
ENDBRANCH  21  22
ENDBRANCH  20  21
ENDBRANCH   1  20
TORSDOF 12
ENDMDL
MODEL 3
REMARK VINA RESULT:    -8.424      3.091      5.606
REMARK INTER + INTRA:         -12.506
REMARK INTER:                 -13.600
REMARK INTRA:                   1.094
REMARK UNBOUND:                 1.581
REMARK  Name = ZINC000085340942
REMARK  13 active torsions:
REMARK  status: ('A' for Active; 'I' for Inactive)
REMARK    1  A    between atoms: C_1  and  C_2
REMARK    2  A    between atoms: C_2  and  C_3
REMARK    3  A    between atoms: C_3  and  C_4
REMARK    4  A    between atoms: C_4  and  C_5
REMARK    5  A    between atoms: C_5  and  C_6
REMARK    6  A    between atoms: C_6  and  C_7
REMARK    7  A    between atoms: C_7  and  C_8
REMARK    8  A    between atoms: C_8  and  C_9
REMARK    9  A    between atoms: C_9  and  C_10
REMARK   10  A    between atoms: C_10  and  C_11
REMARK   11  A    between atoms: C_11  and  C_12
REMARK   12  A    between atoms: N_16  and  C_17
REMARK   13  A    between atoms: C_26  and  O_27
REMARK                            x       y       z     vdW  Elec       q    Type
REMARK                         _______ _______ _______ _____ _____    ______ ____
ROOT
ATOM      1  C   UNL     1       3.219   2.562 -23.199  0.00  0.00    -0.008 C 
ATOM      2  C   UNL     1       2.203   3.268 -23.598  0.00  0.00    +0.207 C 
ATOM      3  C   UNL     1       2.281   4.565 -23.619  0.00  0.00    +0.115 C 
ATOM      4  C   UNL     1       3.376   5.157 -23.241  0.00  0.00    +0.076 C 
ATOM      5  C   UNL     1       4.392   4.451 -22.842  0.00  0.00    +0.106 C 
ATOM      6  N   UNL     1       1.265   5.271 -24.018  0.00  0.00    -0.242 NA
ATOM      7  O   UNL     1       1.109   2.677 -23.976  0.00  0.00    -0.285 OA
ATOM      8  C   UNL     1       4.314   3.153 -22.821  0.00  0.00    -0.091 C 
ATOM      9  O   UNL     1       5.330   2.447 -22.422  0.00  0.00    -0.826 OA
ENDROOT
BRANCH   6  10
ATOM     10  C   UNL     1       0.171   4.680 -24.396  0.00  0.00    +0.083 A 
ATOM     11  C   UNL     1       0.134   4.043 -25.528  0.00  0.00    +0.030 A 
ATOM     12  C   UNL     1      -0.960   3.452 -25.906  0.00  0.00    +0.022 A 
ATOM     13  C   UNL     1      -2.018   3.497 -25.152  0.00  0.00    +0.042 A 
ATOM     14  C   UNL     1      -1.981   4.135 -24.019  0.00  0.00    +0.042 A 
ATOM     15 CL   UNL     1      -3.112   2.906 -25.530  0.00  0.00    -0.083 Cl
ATOM     16  C   UNL     1      -0.886   4.726 -23.641  0.00  0.00    +0.068 A 
ATOM     17 CL   UNL     1      -0.850   5.362 -22.509  0.00  0.00    -0.081 Cl
ENDBRANCH   6  10
BRANCH   5  18
ATOM     18  O   UNL     1       5.487   5.042 -22.465  0.00  0.00    -0.508 OA
ATOM     19  H   UNL     1       6.066   4.615 -21.864  0.00  0.00    +0.292 HD
ENDBRANCH   5  18
BRANCH   1  20
ATOM     20  C   UNL     1       3.140   1.264 -23.178  0.00  0.00    +0.038 C 
BRANCH  20  21
ATOM     21  C   UNL     1       2.524   0.666 -22.202  0.00  0.00    +0.005 C 
BRANCH  21  22
ATOM     22  C   UNL     1       2.287   1.304 -21.095  0.00  0.00    +0.000 C 
BRANCH  22  23
ATOM     23  C   UNL     1       1.119   1.216 -20.532  0.00  0.00    +0.000 C 
BRANCH  23  24
ATOM     24  C   UNL     1       0.119   1.904 -20.999  0.00  0.00    +0.000 C 
BRANCH  24  25
ATOM     25  C   UNL     1      -0.957   1.297 -21.401  0.00  0.00    +0.000 C 
BRANCH  25  26
ATOM     26  C   UNL     1      -2.039   1.978 -21.637  0.00  0.00    -0.000 C 
BRANCH  26  27
ATOM     27  C   UNL     1      -2.516   2.777 -20.728  0.00  0.00    -0.000 C 
BRANCH  27  28
ATOM     28  C   UNL     1      -3.627   3.415 -20.942  0.00  0.00    -0.000 C 
BRANCH  28  30
ATOM     29  C   UNL     1      -5.405   3.427 -22.324  0.00  0.00    +0.004 C 
ATOM     30  C   UNL     1      -4.636   2.800 -21.483  0.00  0.00    -0.003 C 
ENDBRANCH  28  30
ENDBRANCH  27  28
ENDBRANCH  26  27
ENDBRANCH  25  26
ENDBRANCH  24  25
ENDBRANCH  23  24
ENDBRANCH  22  23
ENDBRANCH  21  22
ENDBRANCH  20  21
ENDBRANCH   1  20
TORSDOF 12
ENDMDL
MODEL 4
REMARK VINA RESULT:    -8.107      1.693      2.845
REMARK INTER + INTRA:         -11.976
REMARK INTER:                 -12.295
REMARK INTRA:                   0.320
REMARK UNBOUND:                 1.581
REMARK  Name = ZINC000085340942
REMARK  13 active torsions:
REMARK  status: ('A' for Active; 'I' for Inactive)
REMARK    1  A    between atoms: C_1  and  C_2
REMARK    2  A    between atoms: C_2  and  C_3
REMARK    3  A    between atoms: C_3  and  C_4
REMARK    4  A    between atoms: C_4  and  C_5
REMARK    5  A    between atoms: C_5  and  C_6
REMARK    6  A    between atoms: C_6  and  C_7
REMARK    7  A    between atoms: C_7  and  C_8
REMARK    8  A    between atoms: C_8  and  C_9
REMARK    9  A    between atoms: C_9  and  C_10
REMARK   10  A    between atoms: C_10  and  C_11
REMARK   11  A    between atoms: C_11  and  C_12
REMARK   12  A    between atoms: N_16  and  C_17
REMARK   13  A    between atoms: C_26  and  O_27
REMARK                            x       y       z     vdW  Elec       q    Type
REMARK                         _______ _______ _______ _____ _____    ______ ____
ROOT
ATOM      1  C   UNL     1       2.566   3.877 -23.972  0.00  0.00    -0.008 C 
ATOM      2  C   UNL     1       3.778   3.836 -23.503  0.00  0.00    +0.207 C 
ATOM      3  C   UNL     1       4.508   2.775 -23.680  0.00  0.00    +0.115 C 
ATOM      4  C   UNL     1       4.026   1.755 -24.326  0.00  0.00    +0.076 C 
ATOM      5  C   UNL     1       2.814   1.796 -24.795  0.00  0.00    +0.106 C 
ATOM      6  N   UNL     1       5.719   2.734 -23.211  0.00  0.00    -0.242 NA
ATOM      7  O   UNL     1       4.260   4.856 -22.856  0.00  0.00    -0.285 OA
ATOM      8  C   UNL     1       2.084   2.857 -24.618  0.00  0.00    -0.091 C 
ATOM      9  O   UNL     1       0.873   2.898 -25.087  0.00  0.00    -0.826 OA
ENDROOT
BRANCH   6  10
ATOM     10  C   UNL     1       6.201   3.754 -22.564  0.00  0.00    +0.083 A 
ATOM     11  C   UNL     1       6.583   4.813 -23.214  0.00  0.00    +0.030 A 
ATOM     12  C   UNL     1       7.065   5.834 -22.567  0.00  0.00    +0.022 A 
ATOM     13  C   UNL     1       7.165   5.794 -21.272  0.00  0.00    +0.042 A 
ATOM     14  C   UNL     1       6.783   4.734 -20.623  0.00  0.00    +0.042 A 
ATOM     15 CL   UNL     1       7.647   6.814 -20.626  0.00  0.00    -0.083 Cl
ATOM     16  C   UNL     1       6.302   3.714 -21.269  0.00  0.00    +0.068 A 
ATOM     17 CL   UNL     1       5.920   2.655 -20.620  0.00  0.00    -0.081 Cl
ENDBRANCH   6  10
BRANCH   5  18
ATOM     18  O   UNL     1       2.333   0.776 -25.442  0.00  0.00    -0.508 OA
ATOM     19  H   UNL     1       1.496   0.839 -25.859  0.00  0.00    +0.292 HD
ENDBRANCH   5  18
BRANCH   1  20
ATOM     20  C   UNL     1       1.836   4.938 -23.794  0.00  0.00    +0.038 C 
BRANCH  20  21
ATOM     21  C   UNL     1       0.772   4.878 -23.051  0.00  0.00    +0.005 C 
BRANCH  21  22
ATOM     22  C   UNL     1      -0.367   5.301 -23.513  0.00  0.00    +0.000 C 
BRANCH  22  23
ATOM     23  C   UNL     1      -1.479   4.836 -23.025  0.00  0.00    +0.000 C 
BRANCH  23  24
ATOM     24  C   UNL     1      -1.477   4.209 -21.886  0.00  0.00    +0.000 C 
BRANCH  24  25
ATOM     25  C   UNL     1      -1.988   3.017 -21.798  0.00  0.00    +0.000 C 
BRANCH  25  26
ATOM     26  C   UNL     1      -1.378   2.007 -22.343  0.00  0.00    -0.000 C 
BRANCH  26  27
ATOM     27  C   UNL     1      -0.622   1.235 -21.619  0.00  0.00    -0.000 C 
BRANCH  27  28
ATOM     28  C   UNL     1       0.655   1.175 -21.850  0.00  0.00    -0.000 C 
BRANCH  28  30
ATOM     29  C   UNL     1       2.669   1.292 -20.848  0.00  0.00    +0.004 C 
ATOM     30  C   UNL     1       1.488   1.791 -21.065  0.00  0.00    -0.003 C 
ENDBRANCH  28  30
ENDBRANCH  27  28
ENDBRANCH  26  27
ENDBRANCH  25  26
ENDBRANCH  24  25
ENDBRANCH  23  24
ENDBRANCH  22  23
ENDBRANCH  21  22
ENDBRANCH  20  21
ENDBRANCH   1  20
TORSDOF 12
ENDMDL
MODEL 5
REMARK VINA RESULT:    -8.047      3.028      6.385
REMARK INTER + INTRA:         -11.875
REMARK INTER:                 -13.300
REMARK INTRA:                   1.425
REMARK UNBOUND:                 1.581
REMARK  Name = ZINC000085340942
REMARK  13 active torsions:
REMARK  status: ('A' for Active; 'I' for Inactive)
REMARK    1  A    between atoms: C_1  and  C_2
REMARK    2  A    between atoms: C_2  and  C_3
REMARK    3  A    between atoms: C_3  and  C_4
REMARK    4  A    between atoms: C_4  and  C_5
REMARK    5  A    between atoms: C_5  and  C_6
REMARK    6  A    between atoms: C_6  and  C_7
REMARK    7  A    between atoms: C_7  and  C_8
REMARK    8  A    between atoms: C_8  and  C_9
REMARK    9  A    between atoms: C_9  and  C_10
REMARK   10  A    between atoms: C_10  and  C_11
REMARK   11  A    between atoms: C_11  and  C_12
REMARK   12  A    between atoms: N_16  and  C_17
REMARK   13  A    between atoms: C_26  and  O_27
REMARK                            x       y       z     vdW  Elec       q    Type
REMARK                         _______ _______ _______ _____ _____    ______ ____
ROOT
ATOM      1  C   UNL     1      -2.433   3.911 -23.342  0.00  0.00    -0.008 C 
ATOM      2  C   UNL     1      -1.241   3.926 -23.860  0.00  0.00    +0.207 C 
ATOM      3  C   UNL     1      -1.084   3.721 -25.134  0.00  0.00    +0.115 C 
ATOM      4  C   UNL     1      -2.119   3.501 -25.890  0.00  0.00    +0.076 C 
ATOM      5  C   UNL     1      -3.311   3.486 -25.372  0.00  0.00    +0.106 C 
ATOM      6  N   UNL     1       0.108   3.737 -25.653  0.00  0.00    -0.242 NA
ATOM      7  O   UNL     1      -0.207   4.146 -23.105  0.00  0.00    -0.285 OA
ATOM      8  C   UNL     1      -3.468   3.691 -24.097  0.00  0.00    -0.091 C 
ATOM      9  O   UNL     1      -4.660   3.675 -23.578  0.00  0.00    -0.826 OA
ENDROOT
BRANCH   6  10
ATOM     10  C   UNL     1       1.143   3.957 -24.898  0.00  0.00    +0.083 A 
ATOM     11  C   UNL     1       1.268   5.094 -24.282  0.00  0.00    +0.030 A 
ATOM     12  C   UNL     1       2.303   5.315 -23.526  0.00  0.00    +0.022 A 
ATOM     13  C   UNL     1       3.213   4.397 -23.386  0.00  0.00    +0.042 A 
ATOM     14  C   UNL     1       3.087   3.258 -24.003  0.00  0.00    +0.042 A 
ATOM     15 CL   UNL     1       4.247   4.617 -22.631  0.00  0.00    -0.083 Cl
ATOM     16  C   UNL     1       2.053   3.039 -24.758  0.00  0.00    +0.068 A 
ATOM     17 CL   UNL     1       1.928   1.901 -25.374  0.00  0.00    -0.081 Cl
ENDBRANCH   6  10
BRANCH   5  18
ATOM     18  O   UNL     1      -4.346   3.266 -26.127  0.00  0.00    -0.508 OA
ATOM     19  H   UNL     1      -5.178   3.077 -25.739  0.00  0.00    +0.292 HD
ENDBRANCH   5  18
BRANCH   1  20
ATOM     20  C   UNL     1      -2.590   4.115 -22.067  0.00  0.00    +0.038 C 
BRANCH  20  21
ATOM     21  C   UNL     1      -2.132   3.253 -21.209  0.00  0.00    +0.005 C 
BRANCH  21  22
ATOM     22  C   UNL     1      -2.346   1.984 -21.386  0.00  0.00    +0.000 C 
BRANCH  22  23
ATOM     23  C   UNL     1      -1.343   1.161 -21.472  0.00  0.00    +0.000 C 
BRANCH  23  24
ATOM     24  C   UNL     1      -0.173   1.514 -21.029  0.00  0.00    +0.000 C 
BRANCH  24  25
ATOM     25  C   UNL     1       0.884   1.326 -21.761  0.00  0.00    +0.000 C 
BRANCH  25  26
ATOM     26  C   UNL     1       2.067   1.407 -21.228  0.00  0.00    -0.000 C 
BRANCH  26  27
ATOM     27  C   UNL     1       3.004   0.584 -21.597  0.00  0.00    -0.000 C 
BRANCH  27  28
ATOM     28  C   UNL     1       4.046   0.405 -20.841  0.00  0.00    -0.000 C 
BRANCH  28  30
ATOM     29  C   UNL     1       5.628   1.303 -22.169  0.00  0.00    +0.004 C 
ATOM     30  C   UNL     1       5.095   1.158 -20.992  0.00  0.00    -0.003 C 
ENDBRANCH  28  30
ENDBRANCH  27  28
ENDBRANCH  26  27
ENDBRANCH  25  26
ENDBRANCH  24  25
ENDBRANCH  23  24
ENDBRANCH  22  23
ENDBRANCH  21  22
ENDBRANCH  20  21
ENDBRANCH   1  20
TORSDOF 12
ENDMDL
MODEL 6
REMARK VINA RESULT:    -8.002      2.305      4.041
REMARK INTER + INTRA:         -11.801
REMARK INTER:                 -13.042
REMARK INTRA:                   1.242
REMARK UNBOUND:                 1.581
REMARK  Name = ZINC000085340942
REMARK  13 active torsions:
REMARK  status: ('A' for Active; 'I' for Inactive)
REMARK    1  A    between atoms: C_1  and  C_2
REMARK    2  A    between atoms: C_2  and  C_3
REMARK    3  A    between atoms: C_3  and  C_4
REMARK    4  A    between atoms: C_4  and  C_5
REMARK    5  A    between atoms: C_5  and  C_6
REMARK    6  A    between atoms: C_6  and  C_7
REMARK    7  A    between atoms: C_7  and  C_8
REMARK    8  A    between atoms: C_8  and  C_9
REMARK    9  A    between atoms: C_9  and  C_10
REMARK   10  A    between atoms: C_10  and  C_11
REMARK   11  A    between atoms: C_11  and  C_12
REMARK   12  A    between atoms: N_16  and  C_17
REMARK   13  A    between atoms: C_26  and  O_27
REMARK                            x       y       z     vdW  Elec       q    Type
REMARK                         _______ _______ _______ _____ _____    ______ ____
ROOT
ATOM      1  C   UNL     1       0.194   3.125 -23.096  0.00  0.00    -0.008 C 
ATOM      2  C   UNL     1       1.440   2.757 -23.124  0.00  0.00    +0.207 C 
ATOM      3  C   UNL     1       2.104   2.796 -24.241  0.00  0.00    +0.115 C 
ATOM      4  C   UNL     1       1.521   3.204 -25.330  0.00  0.00    +0.076 C 
ATOM      5  C   UNL     1       0.275   3.572 -25.302  0.00  0.00    +0.106 C 
ATOM      6  N   UNL     1       3.350   2.428 -24.269  0.00  0.00    -0.242 NA
ATOM      7  O   UNL     1       2.022   2.349 -22.036  0.00  0.00    -0.285 OA
ATOM      8  C   UNL     1      -0.389   3.533 -24.184  0.00  0.00    -0.091 C 
ATOM      9  O   UNL     1      -1.635   3.901 -24.156  0.00  0.00    -0.826 OA
ENDROOT
BRANCH   6  10
ATOM     10  C   UNL     1       3.933   2.020 -23.181  0.00  0.00    +0.083 A 
ATOM     11  C   UNL     1       3.761   0.799 -22.771  0.00  0.00    +0.030 A 
ATOM     12  C   UNL     1       4.344   0.391 -21.682  0.00  0.00    +0.022 A 
ATOM     13  C   UNL     1       5.098   1.204 -21.004  0.00  0.00    +0.042 A 
ATOM     14  C   UNL     1       5.269   2.426 -21.415  0.00  0.00    +0.042 A 
ATOM     15 CL   UNL     1       5.680   0.797 -19.916  0.00  0.00    -0.083 Cl
ATOM     16  C   UNL     1       4.687   2.834 -22.503  0.00  0.00    +0.068 A 
ATOM     17 CL   UNL     1       4.858   4.055 -22.913  0.00  0.00    -0.081 Cl
ENDBRANCH   6  10
BRANCH   5  18
ATOM     18  O   UNL     1      -0.307   3.980 -26.390  0.00  0.00    -0.508 OA
ATOM     19  H   UNL     1       0.187   4.432 -27.045  0.00  0.00    +0.292 HD
ENDBRANCH   5  18
BRANCH   1  20
ATOM     20  C   UNL     1      -0.470   3.086 -21.978  0.00  0.00    +0.038 C 
BRANCH  20  21
ATOM     21  C   UNL     1      -0.969   1.961 -21.558  0.00  0.00    +0.005 C 
BRANCH  21  22
ATOM     22  C   UNL     1      -2.252   1.843 -21.389  0.00  0.00    +0.000 C 
BRANCH  22  23
ATOM     23  C   UNL     1      -2.967   2.886 -21.088  0.00  0.00    +0.000 C 
BRANCH  23  24
ATOM     24  C   UNL     1      -4.246   2.762 -20.885  0.00  0.00    +0.000 C 
BRANCH  24  25
ATOM     25  C   UNL     1      -5.083   2.999 -21.850  0.00  0.00    +0.000 C 
BRANCH  25  26
ATOM     26  C   UNL     1      -4.758   3.816 -22.807  0.00  0.00    -0.000 C 
BRANCH  26  27
ATOM     27  C   UNL     1      -5.440   3.824 -23.915  0.00  0.00    -0.000 C 
BRANCH  27  28
ATOM     28  C   UNL     1      -4.856   4.132 -25.035  0.00  0.00    -0.000 C 
BRANCH  28  30
ATOM     29  C   UNL     1      -3.821   3.484 -26.927  0.00  0.00    +0.004 C 
ATOM     30  C   UNL     1      -4.279   3.207 -25.742  0.00  0.00    -0.003 C 
ENDBRANCH  28  30
ENDBRANCH  27  28
ENDBRANCH  26  27
ENDBRANCH  25  26
ENDBRANCH  24  25
ENDBRANCH  23  24
ENDBRANCH  22  23
ENDBRANCH  21  22
ENDBRANCH  20  21
ENDBRANCH   1  20
TORSDOF 12
ENDMDL
MODEL 7
REMARK VINA RESULT:    -7.557      3.603      8.011
REMARK INTER + INTRA:         -11.056
REMARK INTER:                 -12.319
REMARK INTRA:                   1.264
REMARK UNBOUND:                 1.581
REMARK  Name = ZINC000085340942
REMARK  13 active torsions:
REMARK  status: ('A' for Active; 'I' for Inactive)
REMARK    1  A    between atoms: C_1  and  C_2
REMARK    2  A    between atoms: C_2  and  C_3
REMARK    3  A    between atoms: C_3  and  C_4
REMARK    4  A    between atoms: C_4  and  C_5
REMARK    5  A    between atoms: C_5  and  C_6
REMARK    6  A    between atoms: C_6  and  C_7
REMARK    7  A    between atoms: C_7  and  C_8
REMARK    8  A    between atoms: C_8  and  C_9
REMARK    9  A    between atoms: C_9  and  C_10
REMARK   10  A    between atoms: C_10  and  C_11
REMARK   11  A    between atoms: C_11  and  C_12
REMARK   12  A    between atoms: N_16  and  C_17
REMARK   13  A    between atoms: C_26  and  O_27
REMARK                            x       y       z     vdW  Elec       q    Type
REMARK                         _______ _______ _______ _____ _____    ______ ____
ROOT
ATOM      1  C   UNL     1       2.086   2.861 -22.538  0.00  0.00    -0.008 C 
ATOM      2  C   UNL     1       0.790   2.780 -22.610  0.00  0.00    +0.207 C 
ATOM      3  C   UNL     1       0.137   2.044 -21.761  0.00  0.00    +0.115 C 
ATOM      4  C   UNL     1       0.780   1.388 -20.839  0.00  0.00    +0.076 C 
ATOM      5  C   UNL     1       2.075   1.469 -20.768  0.00  0.00    +0.106 C 
ATOM      6  N   UNL     1      -1.158   1.963 -21.833  0.00  0.00    -0.242 NA
ATOM      7  O   UNL     1       0.148   3.435 -23.530  0.00  0.00    -0.285 OA
ATOM      8  C   UNL     1       2.728   2.206 -21.617  0.00  0.00    -0.091 C 
ATOM      9  O   UNL     1       4.024   2.287 -21.545  0.00  0.00    -0.826 OA
ENDROOT
BRANCH   6  10
ATOM     10  C   UNL     1      -1.801   2.618 -22.753  0.00  0.00    +0.083 A 
ATOM     11  C   UNL     1      -1.783   2.197 -23.982  0.00  0.00    +0.030 A 
ATOM     12  C   UNL     1      -2.426   2.852 -24.904  0.00  0.00    +0.022 A 
ATOM     13  C   UNL     1      -3.086   3.929 -24.595  0.00  0.00    +0.042 A 
ATOM     14  C   UNL     1      -3.103   4.350 -23.365  0.00  0.00    +0.042 A 
ATOM     15 CL   UNL     1      -3.728   4.584 -25.516  0.00  0.00    -0.083 Cl
ATOM     16  C   UNL     1      -2.461   3.695 -22.444  0.00  0.00    +0.068 A 
ATOM     17 CL   UNL     1      -2.478   4.116 -21.215  0.00  0.00    -0.081 Cl
ENDBRANCH   6  10
BRANCH   5  18
ATOM     18  O   UNL     1       2.717   0.814 -19.847  0.00  0.00    -0.508 OA
ATOM     19  H   UNL     1       2.879  -0.103 -19.951  0.00  0.00    +0.292 HD
ENDBRANCH   5  18
BRANCH   1  20
ATOM     20  C   UNL     1       2.739   3.598 -23.387  0.00  0.00    +0.038 C 
BRANCH  20  21
ATOM     21  C   UNL     1       2.969   4.849 -23.120  0.00  0.00    +0.005 C 
BRANCH  21  22
ATOM     22  C   UNL     1       4.187   5.257 -22.920  0.00  0.00    +0.000 C 
BRANCH  22  23
ATOM     23  C   UNL     1       5.189   4.527 -23.310  0.00  0.00    +0.000 C 
BRANCH  23  24
ATOM     24  C   UNL     1       6.406   4.888 -23.027  0.00  0.00    +0.000 C 
BRANCH  24  25
ATOM     25  C   UNL     1       7.126   4.170 -22.219  0.00  0.00    +0.000 C 
BRANCH  25  26
ATOM     26  C   UNL     1       7.122   4.425 -20.944  0.00  0.00    -0.000 C 
BRANCH  26  27
ATOM     27  C   UNL     1       7.643   5.532 -20.501  0.00  0.00    -0.000 C 
BRANCH  27  28
ATOM     28  C   UNL     1       6.883   6.436 -19.959  0.00  0.00    -0.000 C 
BRANCH  28  30
ATOM     29  C   UNL     1       5.409   7.964 -20.712  0.00  0.00    +0.004 C 
ATOM     30  C   UNL     1       6.634   7.542 -20.595  0.00  0.00    -0.003 C 
ENDBRANCH  28  30
ENDBRANCH  27  28
ENDBRANCH  26  27
ENDBRANCH  25  26
ENDBRANCH  24  25
ENDBRANCH  23  24
ENDBRANCH  22  23
ENDBRANCH  21  22
ENDBRANCH  20  21
ENDBRANCH   1  20
TORSDOF 12
ENDMDL
MODEL 8
REMARK VINA RESULT:    -7.099      2.990      4.650
REMARK INTER + INTRA:         -10.291
REMARK INTER:                 -11.298
REMARK INTRA:                   1.008
REMARK UNBOUND:                 1.581
REMARK  Name = ZINC000085340942
REMARK  13 active torsions:
REMARK  status: ('A' for Active; 'I' for Inactive)
REMARK    1  A    between atoms: C_1  and  C_2
REMARK    2  A    between atoms: C_2  and  C_3
REMARK    3  A    between atoms: C_3  and  C_4
REMARK    4  A    between atoms: C_4  and  C_5
REMARK    5  A    between atoms: C_5  and  C_6
REMARK    6  A    between atoms: C_6  and  C_7
REMARK    7  A    between atoms: C_7  and  C_8
REMARK    8  A    between atoms: C_8  and  C_9
REMARK    9  A    between atoms: C_9  and  C_10
REMARK   10  A    between atoms: C_10  and  C_11
REMARK   11  A    between atoms: C_11  and  C_12
REMARK   12  A    between atoms: N_16  and  C_17
REMARK   13  A    between atoms: C_26  and  O_27
REMARK                            x       y       z     vdW  Elec       q    Type
REMARK                         _______ _______ _______ _____ _____    ______ ____
ROOT
ATOM      1  C   UNL     1       3.945   4.746 -22.987  0.00  0.00    -0.008 C 
ATOM      2  C   UNL     1       4.552   5.794 -22.516  0.00  0.00    +0.207 C 
ATOM      3  C   UNL     1       5.849   5.813 -22.435  0.00  0.00    +0.115 C 
ATOM      4  C   UNL     1       6.540   4.782 -22.826  0.00  0.00    +0.076 C 
ATOM      5  C   UNL     1       5.932   3.734 -23.297  0.00  0.00    +0.106 C 
ATOM      6  N   UNL     1       6.457   6.861 -21.965  0.00  0.00    -0.242 NA
ATOM      7  O   UNL     1       3.863   6.825 -22.125  0.00  0.00    -0.285 OA
ATOM      8  C   UNL     1       4.634   3.716 -23.377  0.00  0.00    -0.091 C 
ATOM      9  O   UNL     1       4.027   2.667 -23.848  0.00  0.00    -0.826 OA
ENDROOT
BRANCH   6  10
ATOM     10  C   UNL     1       5.767   7.891 -21.574  0.00  0.00    +0.083 A 
ATOM     11  C   UNL     1       5.007   7.804 -20.524  0.00  0.00    +0.030 A 
ATOM     12  C   UNL     1       4.316   8.834 -20.132  0.00  0.00    +0.022 A 
ATOM     13  C   UNL     1       4.387   9.952 -20.792  0.00  0.00    +0.042 A 
ATOM     14  C   UNL     1       5.148  10.040 -21.843  0.00  0.00    +0.042 A 
ATOM     15 CL   UNL     1       3.698  10.982 -20.401  0.00  0.00    -0.083 Cl
ATOM     16  C   UNL     1       5.838   9.009 -22.234  0.00  0.00    +0.068 A 
ATOM     17 CL   UNL     1       6.598   9.097 -23.284  0.00  0.00    -0.081 Cl
ENDBRANCH   6  10
BRANCH   5  18
ATOM     18  O   UNL     1       6.622   2.704 -23.688  0.00  0.00    -0.508 OA
ATOM     19  H   UNL     1       6.306   2.167 -24.388  0.00  0.00    +0.292 HD
ENDBRANCH   5  18
BRANCH   1  20
ATOM     20  C   UNL     1       2.647   4.728 -23.067  0.00  0.00    +0.038 C 
BRANCH  20  21
ATOM     21  C   UNL     1       2.068   4.675 -24.229  0.00  0.00    +0.005 C 
BRANCH  21  22
ATOM     22  C   UNL     1       0.780   4.518 -24.307  0.00  0.00    +0.000 C 
BRANCH  22  23
ATOM     23  C   UNL     1       0.009   5.014 -23.386  0.00  0.00    +0.000 C 
BRANCH  23  24
ATOM     24  C   UNL     1      -1.021   4.339 -22.967  0.00  0.00    +0.000 C 
BRANCH  24  25
ATOM     25  C   UNL     1      -0.960   3.043 -22.887  0.00  0.00    +0.000 C 
BRANCH  25  26
ATOM     26  C   UNL     1      -0.814   2.470 -21.730  0.00  0.00    -0.000 C 
BRANCH  26  27
ATOM     27  C   UNL     1      -0.061   1.415 -21.617  0.00  0.00    -0.000 C 
BRANCH  27  28
ATOM     28  C   UNL     1       1.210   1.494 -21.876  0.00  0.00    -0.000 C 
BRANCH  28  30
ATOM     29  C   UNL     1       3.251   1.007 -21.058  0.00  0.00    +0.004 C 
ATOM     30  C   UNL     1       2.071   1.530 -20.902  0.00  0.00    -0.003 C 
ENDBRANCH  28  30
ENDBRANCH  27  28
ENDBRANCH  26  27
ENDBRANCH  25  26
ENDBRANCH  24  25
ENDBRANCH  23  24
ENDBRANCH  22  23
ENDBRANCH  21  22
ENDBRANCH  20  21
ENDBRANCH   1  20
TORSDOF 12
ENDMDL
MODEL 9
REMARK VINA RESULT:    -6.831      4.638      7.883
REMARK INTER + INTRA:          -9.843
REMARK INTER:                 -11.424
REMARK INTRA:                   1.581
REMARK UNBOUND:                 1.581
REMARK  Name = ZINC000085340942
REMARK  13 active torsions:
REMARK  status: ('A' for Active; 'I' for Inactive)
REMARK    1  A    between atoms: C_1  and  C_2
REMARK    2  A    between atoms: C_2  and  C_3
REMARK    3  A    between atoms: C_3  and  C_4
REMARK    4  A    between atoms: C_4  and  C_5
REMARK    5  A    between atoms: C_5  and  C_6
REMARK    6  A    between atoms: C_6  and  C_7
REMARK    7  A    between atoms: C_7  and  C_8
REMARK    8  A    between atoms: C_8  and  C_9
REMARK    9  A    between atoms: C_9  and  C_10
REMARK   10  A    between atoms: C_10  and  C_11
REMARK   11  A    between atoms: C_11  and  C_12
REMARK   12  A    between atoms: N_16  and  C_17
REMARK   13  A    between atoms: C_26  and  O_27
REMARK                            x       y       z     vdW  Elec       q    Type
REMARK                         _______ _______ _______ _____ _____    ______ ____
ROOT
ATOM      1  C   UNL     1       2.167   3.396 -22.949  0.00  0.00    -0.008 C 
ATOM      2  C   UNL     1       0.924   3.018 -22.992  0.00  0.00    +0.207 C 
ATOM      3  C   UNL     1       0.570   1.887 -22.457  0.00  0.00    +0.115 C 
ATOM      4  C   UNL     1       1.459   1.135 -21.879  0.00  0.00    +0.076 C 
ATOM      5  C   UNL     1       2.702   1.513 -21.836  0.00  0.00    +0.106 C 
ATOM      6  N   UNL     1      -0.673   1.509 -22.500  0.00  0.00    -0.242 NA
ATOM      7  O   UNL     1       0.035   3.770 -23.570  0.00  0.00    -0.285 OA
ATOM      8  C   UNL     1       3.056   2.644 -22.371  0.00  0.00    -0.091 C 
ATOM      9  O   UNL     1       4.299   3.023 -22.328  0.00  0.00    -0.826 OA
ENDROOT
BRANCH   6  10
ATOM     10  C   UNL     1      -1.562   2.261 -23.078  0.00  0.00    +0.083 A 
ATOM     11  C   UNL     1      -1.672   2.257 -24.373  0.00  0.00    +0.030 A 
ATOM     12  C   UNL     1      -2.562   3.009 -24.952  0.00  0.00    +0.022 A 
ATOM     13  C   UNL     1      -3.340   3.765 -24.235  0.00  0.00    +0.042 A 
ATOM     14  C   UNL     1      -3.229   3.768 -22.939  0.00  0.00    +0.042 A 
ATOM     15 CL   UNL     1      -4.229   4.516 -24.812  0.00  0.00    -0.083 Cl
ATOM     16  C   UNL     1      -2.340   3.016 -22.361  0.00  0.00    +0.068 A 
ATOM     17 CL   UNL     1      -2.229   3.019 -21.066  0.00  0.00    -0.081 Cl
ENDBRANCH   6  10
BRANCH   5  18
ATOM     18  O   UNL     1       3.591   0.761 -21.258  0.00  0.00    -0.508 OA
ATOM     19  H   UNL     1       3.332  -0.042 -20.850  0.00  0.00    +0.292 HD
ENDBRANCH   5  18
BRANCH   1  20
ATOM     20  C   UNL     1       2.521   4.528 -23.484  0.00  0.00    +0.038 C 
BRANCH  20  21
ATOM     21  C   UNL     1       2.362   5.636 -22.825  0.00  0.00    +0.005 C 
BRANCH  21  22
ATOM     22  C   UNL     1       3.272   6.563 -22.883  0.00  0.00    +0.000 C 
BRANCH  22  23
ATOM     23  C   UNL     1       4.298   6.515 -22.087  0.00  0.00    +0.000 C 
BRANCH  23  24
ATOM     24  C   UNL     1       5.033   7.574 -21.909  0.00  0.00    +0.000 C 
BRANCH  24  25
ATOM     25  C   UNL     1       4.795   8.370 -20.910  0.00  0.00    +0.000 C 
BRANCH  25  26
ATOM     26  C   UNL     1       4.124   9.467 -21.099  0.00  0.00    -0.000 C 
BRANCH  26  27
ATOM     27  C   UNL     1       4.558  10.588 -20.603  0.00  0.00    -0.000 C 
BRANCH  27  28
ATOM     28  C   UNL     1       3.715  11.512 -20.249  0.00  0.00    -0.000 C 
BRANCH  28  30
ATOM     29  C   UNL     1       2.602  13.409 -20.734  0.00  0.00    +0.004 C 
ATOM     30  C   UNL     1       3.567  12.573 -20.984  0.00  0.00    -0.003 C 
ENDBRANCH  28  30
ENDBRANCH  27  28
ENDBRANCH  26  27
ENDBRANCH  25  26
ENDBRANCH  24  25
ENDBRANCH  23  24
ENDBRANCH  22  23
ENDBRANCH  21  22
ENDBRANCH  20  21
ENDBRANCH   1  20
TORSDOF 12
ENDMDL
