MODEL 1
REMARK VINA RESULT:    -8.322      0.000      0.000
REMARK INTER + INTRA:         -11.827
REMARK INTER:                 -10.115
REMARK INTRA:                  -1.712
REMARK UNBOUND:                -0.587
REMARK  Name = ZINC000004762377
REMARK  6 active torsions:
REMARK  status: ('A' for Active; 'I' for Inactive)
REMARK    1  A    between atoms: C_2  and  CA_4
REMARK    2  A    between atoms: CA_4  and  CB_5
REMARK    3  A    between atoms: CA_4  and  N_12
REMARK    4  A    between atoms: CB_5  and  CG_6
REMARK    5  A    between atoms: N_12  and  C_13
REMARK    6  A    between atoms: C_13  and  C_14
REMARK                            x       y       z     vdW  Elec       q    Type
REMARK                         _______ _______ _______ _____ _____    ______ ____
ROOT
ATOM      1  CA  PHE A   1       2.055   1.532 -21.739  0.00  0.00    +0.114 C 
ENDROOT
BRANCH   1   2
ATOM      2  N   PHE A   1       0.927   1.571 -21.095  0.00  0.00    +0.237 N 
ATOM      3  H1  PHE A   1       1.068   0.906 -20.334  0.00  0.00    +0.202 HD
ATOM      4  H2  PHE A   1       0.766   2.546 -20.841  0.00  0.00    +0.202 HD
BRANCH   2   5
ATOM      5  C   UNK A   0      -0.162   1.147 -21.663  0.00  0.00    +0.166 C 
BRANCH   5   6
ATOM      6  C   UNK A   0      -1.059   1.997 -22.064  0.00  0.00    -0.003 A 
ATOM      7  C   UNK A   0      -1.449   1.995 -23.305  0.00  0.00    +0.009 A 
ATOM      8  C   UNK A   0      -2.347   2.845 -23.707  0.00  0.00    +0.000 A 
ATOM      9  C   UNK A   0      -2.855   3.698 -22.867  0.00  0.00    +0.000 A 
ATOM     10  C   UNK A   0      -2.466   3.701 -21.627  0.00  0.00    +0.000 A 
ATOM     11  C   UNK A   0      -1.568   2.850 -21.226  0.00  0.00    +0.009 A 
ENDBRANCH   5   6
ENDBRANCH   2   5
ENDBRANCH   1   2
BRANCH   1  13
ATOM     12  O   PHE A   1       3.516   0.014 -20.944  0.00  0.00    -0.544 OA
ATOM     13  C   PHE A   1       2.691   0.405 -21.870  0.00  0.00    +0.090 C 
ATOM     14  OXT PHE A   1       2.501  -0.329 -22.926  0.00  0.00    -0.544 OA
ENDBRANCH   1  13
BRANCH   1  15
ATOM     15  CB  PHE A   1       2.547   2.620 -22.254  0.00  0.00    +0.095 C 
BRANCH  15  16
ATOM     16  CG  PHE A   1       2.000   3.144 -23.310  0.00  0.00    -0.042 A 
ATOM     17  CD2 PHE A   1       2.021   2.501 -24.440  0.00  0.00    +0.004 A 
ATOM     18  CE2 PHE A   1       1.475   3.024 -25.497  0.00  0.00    +0.000 A 
ATOM     19  CZ  PHE A   1       0.906   4.191 -25.424  0.00  0.00    +0.000 A 
ATOM     20  CE1 PHE A   1       0.884   4.834 -24.295  0.00  0.00    +0.000 A 
ATOM     21  CD1 PHE A   1       1.431   4.311 -23.237  0.00  0.00    +0.004 A 
ENDBRANCH  15  16
ENDBRANCH   1  15
TORSDOF 6
ENDMDL
MODEL 2
REMARK VINA RESULT:    -8.319      2.577      4.344
REMARK INTER + INTRA:         -11.824
REMARK INTER:                  -9.840
REMARK INTRA:                  -1.984
REMARK UNBOUND:                -0.587
REMARK  Name = ZINC000004762377
REMARK  6 active torsions:
REMARK  status: ('A' for Active; 'I' for Inactive)
REMARK    1  A    between atoms: C_2  and  CA_4
REMARK    2  A    between atoms: CA_4  and  CB_5
REMARK    3  A    between atoms: CA_4  and  N_12
REMARK    4  A    between atoms: CB_5  and  CG_6
REMARK    5  A    between atoms: N_12  and  C_13
REMARK    6  A    between atoms: C_13  and  C_14
REMARK                            x       y       z     vdW  Elec       q    Type
REMARK                         _______ _______ _______ _____ _____    ______ ____
ROOT
ATOM      1  CA  PHE A   1      -0.449   3.319 -24.476  0.00  0.00    +0.114 C 
ENDROOT
BRANCH   1   2
ATOM      2  N   PHE A   1      -0.742   2.281 -23.751  0.00  0.00    +0.237 N 
ATOM      3  H1  PHE A   1      -1.702   2.068 -24.023  0.00  0.00    +0.202 HD
ATOM      4  H2  PHE A   1      -0.032   1.576 -23.944  0.00  0.00    +0.202 HD
BRANCH   2   5
ATOM      5  C   UNK A   0      -0.818   2.392 -22.458  0.00  0.00    +0.166 C 
BRANCH   5   6
ATOM      6  C   UNK A   0      -1.915   2.815 -21.904  0.00  0.00    -0.003 A 
ATOM      7  C   UNK A   0      -3.013   2.130 -22.031  0.00  0.00    +0.009 A 
ATOM      8  C   UNK A   0      -4.111   2.552 -21.477  0.00  0.00    +0.000 A 
ATOM      9  C   UNK A   0      -4.110   3.660 -20.796  0.00  0.00    +0.000 A 
ATOM     10  C   UNK A   0      -3.012   4.345 -20.669  0.00  0.00    +0.000 A 
ATOM     11  C   UNK A   0      -1.915   3.922 -21.223  0.00  0.00    +0.009 A 
ENDBRANCH   5   6
ENDBRANCH   2   5
ENDBRANCH   1   2
BRANCH   1  13
ATOM     12  O   PHE A   1       1.779   3.584 -24.285  0.00  0.00    -0.544 OA
ATOM     13  C   PHE A   1       0.575   4.060 -24.168  0.00  0.00    +0.090 C 
ATOM     14  OXT PHE A   1       0.393   5.274 -23.742  0.00  0.00    -0.544 OA
ENDBRANCH   1  13
BRANCH   1  15
ATOM     15  CB  PHE A   1      -1.179   3.616 -25.510  0.00  0.00    +0.095 C 
BRANCH  15  16
ATOM     16  CG  PHE A   1      -2.471   3.698 -25.391  0.00  0.00    -0.042 A 
ATOM     17  CD2 PHE A   1      -2.999   4.651 -24.682  0.00  0.00    +0.004 A 
ATOM     18  CE2 PHE A   1      -4.291   4.734 -24.562  0.00  0.00    +0.000 A 
ATOM     19  CZ  PHE A   1      -5.055   3.863 -25.152  0.00  0.00    +0.000 A 
ATOM     20  CE1 PHE A   1      -4.527   2.909 -25.860  0.00  0.00    +0.000 A 
ATOM     21  CD1 PHE A   1      -3.234   2.827 -25.980  0.00  0.00    +0.004 A 
ENDBRANCH  15  16
ENDBRANCH   1  15
TORSDOF 6
ENDMDL
MODEL 3
REMARK VINA RESULT:    -8.181      2.515      4.520
REMARK INTER + INTRA:         -11.637
REMARK INTER:                  -9.857
REMARK INTRA:                  -1.780
REMARK UNBOUND:                -0.587
REMARK  Name = ZINC000004762377
REMARK  6 active torsions:
REMARK  status: ('A' for Active; 'I' for Inactive)
REMARK    1  A    between atoms: C_2  and  CA_4
REMARK    2  A    between atoms: CA_4  and  CB_5
REMARK    3  A    between atoms: CA_4  and  N_12
REMARK    4  A    between atoms: CB_5  and  CG_6
REMARK    5  A    between atoms: N_12  and  C_13
REMARK    6  A    between atoms: C_13  and  C_14
REMARK                            x       y       z     vdW  Elec       q    Type
REMARK                         _______ _______ _______ _____ _____    ______ ____
ROOT
ATOM      1  CA  PHE A   1      -0.035   2.975 -23.469  0.00  0.00    +0.114 C 
ENDROOT
BRANCH   1   2
ATOM      2  N   PHE A   1      -0.741   2.612 -24.498  0.00  0.00    +0.237 N 
ATOM      3  H1  PHE A   1      -0.054   2.179 -25.115  0.00  0.00    +0.202 HD
ATOM      4  H2  PHE A   1      -1.494   2.020 -24.145  0.00  0.00    +0.202 HD
BRANCH   2   5
ATOM      5  C   UNK A   0      -1.296   3.511 -25.255  0.00  0.00    +0.166 C 
BRANCH   5   6
ATOM      6  C   UNK A   0      -2.589   3.639 -25.273  0.00  0.00    -0.003 A 
ATOM      7  C   UNK A   0      -3.157   4.603 -24.611  0.00  0.00    +0.009 A 
ATOM      8  C   UNK A   0      -4.450   4.732 -24.628  0.00  0.00    +0.000 A 
ATOM      9  C   UNK A   0      -5.177   3.895 -25.307  0.00  0.00    +0.000 A 
ATOM     10  C   UNK A   0      -4.610   2.930 -25.969  0.00  0.00    +0.000 A 
ATOM     11  C   UNK A   0      -3.316   2.803 -25.952  0.00  0.00    +0.009 A 
ENDBRANCH   5   6
ENDBRANCH   2   5
ENDBRANCH   1   2
BRANCH   1  13
ATOM     12  O   PHE A   1       1.032   4.941 -23.211  0.00  0.00    -0.544 OA
ATOM     13  C   PHE A   1       1.024   3.712 -23.635  0.00  0.00    +0.090 C 
ATOM     14  OXT PHE A   1       2.073   3.220 -24.223  0.00  0.00    -0.544 OA
ENDBRANCH   1  13
BRANCH   1  15
ATOM     15  CB  PHE A   1      -0.386   2.600 -22.275  0.00  0.00    +0.095 C 
BRANCH  15  16
ATOM     16  CG  PHE A   1      -1.562   2.912 -21.816  0.00  0.00    -0.042 A 
ATOM     17  CD2 PHE A   1      -2.511   2.023 -21.802  0.00  0.00    +0.004 A 
ATOM     18  CE2 PHE A   1      -3.687   2.334 -21.344  0.00  0.00    +0.000 A 
ATOM     19  CZ  PHE A   1      -3.914   3.534 -20.899  0.00  0.00    +0.000 A 
ATOM     20  CE1 PHE A   1      -2.966   4.423 -20.914  0.00  0.00    +0.000 A 
ATOM     21  CD1 PHE A   1      -1.789   4.112 -21.372  0.00  0.00    +0.004 A 
ENDBRANCH  15  16
ENDBRANCH   1  15
TORSDOF 6
ENDMDL
MODEL 4
REMARK VINA RESULT:    -8.104      3.448      6.152
REMARK INTER + INTRA:         -11.533
REMARK INTER:                 -10.921
REMARK INTRA:                  -0.612
REMARK UNBOUND:                -0.587
REMARK  Name = ZINC000004762377
REMARK  6 active torsions:
REMARK  status: ('A' for Active; 'I' for Inactive)
REMARK    1  A    between atoms: C_2  and  CA_4
REMARK    2  A    between atoms: CA_4  and  CB_5
REMARK    3  A    between atoms: CA_4  and  N_12
REMARK    4  A    between atoms: CB_5  and  CG_6
REMARK    5  A    between atoms: N_12  and  C_13
REMARK    6  A    between atoms: C_13  and  C_14
REMARK                            x       y       z     vdW  Elec       q    Type
REMARK                         _______ _______ _______ _____ _____    ______ ____
ROOT
ATOM      1  CA  PHE A   1      -2.793   3.450 -25.229  0.00  0.00    +0.114 C 
ENDROOT
BRANCH   1   2
ATOM      2  N   PHE A   1      -1.615   2.915 -25.111  0.00  0.00    +0.237 N 
ATOM      3  H1  PHE A   1      -1.638   2.498 -24.180  0.00  0.00    +0.202 HD
ATOM      4  H2  PHE A   1      -1.496   2.284 -25.904  0.00  0.00    +0.202 HD
BRANCH   2   5
ATOM      5  C   UNK A   0      -0.558   3.671 -25.072  0.00  0.00    +0.166 C 
BRANCH   5   6
ATOM      6  C   UNK A   0       0.427   3.372 -24.278  0.00  0.00    -0.003 A 
ATOM      7  C   UNK A   0       0.247   2.523 -23.310  0.00  0.00    +0.009 A 
ATOM      8  C   UNK A   0       1.231   2.223 -22.516  0.00  0.00    +0.000 A 
ATOM      9  C   UNK A   0       2.396   2.773 -22.690  0.00  0.00    +0.000 A 
ATOM     10  C   UNK A   0       2.577   3.622 -23.658  0.00  0.00    +0.000 A 
ATOM     11  C   UNK A   0       1.592   3.921 -24.452  0.00  0.00    +0.009 A 
ENDBRANCH   5   6
ENDBRANCH   2   5
ENDBRANCH   1   2
BRANCH   1  13
ATOM     12  O   PHE A   1      -4.648   2.611 -26.191  0.00  0.00    -0.544 OA
ATOM     13  C   PHE A   1      -3.506   3.224 -26.293  0.00  0.00    +0.090 C 
ATOM     14  OXT PHE A   1      -3.076   3.610 -27.458  0.00  0.00    -0.544 OA
ENDBRANCH   1  13
BRANCH   1  15
ATOM     15  CB  PHE A   1      -3.258   4.212 -24.284  0.00  0.00    +0.095 C 
BRANCH  15  16
ATOM     16  CG  PHE A   1      -3.804   3.680 -23.231  0.00  0.00    -0.042 A 
ATOM     17  CD2 PHE A   1      -3.058   3.122 -22.324  0.00  0.00    +0.004 A 
ATOM     18  CE2 PHE A   1      -3.602   2.590 -21.270  0.00  0.00    +0.000 A 
ATOM     19  CZ  PHE A   1      -4.893   2.616 -21.123  0.00  0.00    +0.000 A 
ATOM     20  CE1 PHE A   1      -5.640   3.173 -22.030  0.00  0.00    +0.000 A 
ATOM     21  CD1 PHE A   1      -5.095   3.705 -23.084  0.00  0.00    +0.004 A 
ENDBRANCH  15  16
ENDBRANCH   1  15
TORSDOF 6
ENDMDL
MODEL 5
REMARK VINA RESULT:    -7.859      2.569      4.100
REMARK INTER + INTRA:         -11.202
REMARK INTER:                 -10.367
REMARK INTRA:                  -0.835
REMARK UNBOUND:                -0.587
REMARK  Name = ZINC000004762377
REMARK  6 active torsions:
REMARK  status: ('A' for Active; 'I' for Inactive)
REMARK    1  A    between atoms: C_2  and  CA_4
REMARK    2  A    between atoms: CA_4  and  CB_5
REMARK    3  A    between atoms: CA_4  and  N_12
REMARK    4  A    between atoms: CB_5  and  CG_6
REMARK    5  A    between atoms: N_12  and  C_13
REMARK    6  A    between atoms: C_13  and  C_14
REMARK                            x       y       z     vdW  Elec       q    Type
REMARK                         _______ _______ _______ _____ _____    ______ ____
ROOT
ATOM      1  CA  PHE A   1      -0.024   3.772 -24.081  0.00  0.00    +0.114 C 
ENDROOT
BRANCH   1   2
ATOM      2  N   PHE A   1      -1.157   4.334 -23.785  0.00  0.00    +0.237 N 
ATOM      3  H1  PHE A   1      -1.314   4.052 -22.818  0.00  0.00    +0.202 HD
ATOM      4  H2  PHE A   1      -1.050   5.331 -23.971  0.00  0.00    +0.202 HD
BRANCH   2   5
ATOM      5  C   UNK A   0      -2.247   3.956 -24.386  0.00  0.00    +0.166 C 
BRANCH   5   6
ATOM      6  C   UNK A   0      -3.335   3.767 -23.701  0.00  0.00    -0.003 A 
ATOM      7  C   UNK A   0      -3.264   3.371 -22.465  0.00  0.00    +0.009 A 
ATOM      8  C   UNK A   0      -4.352   3.181 -21.779  0.00  0.00    +0.000 A 
ATOM      9  C   UNK A   0      -5.511   3.388 -22.330  0.00  0.00    +0.000 A 
ATOM     10  C   UNK A   0      -5.583   3.785 -23.566  0.00  0.00    +0.000 A 
ATOM     11  C   UNK A   0      -4.494   3.974 -24.251  0.00  0.00    +0.009 A 
ENDBRANCH   5   6
ENDBRANCH   2   5
ENDBRANCH   1   2
BRANCH   1  13
ATOM     12  O   PHE A   1       1.471   5.455 -24.003  0.00  0.00    -0.544 OA
ATOM     13  C   PHE A   1       0.920   4.468 -24.645  0.00  0.00    +0.090 C 
ATOM     14  OXT PHE A   1       1.309   4.177 -25.851  0.00  0.00    -0.544 OA
ENDBRANCH   1  13
BRANCH   1  15
ATOM     15  CB  PHE A   1       0.168   2.515 -23.814  0.00  0.00    +0.095 C 
BRANCH  15  16
ATOM     16  CG  PHE A   1       0.778   2.169 -22.719  0.00  0.00    -0.042 A 
ATOM     17  CD2 PHE A   1       2.077   2.147 -22.677  0.00  0.00    +0.004 A 
ATOM     18  CE2 PHE A   1       2.688   1.802 -21.583  0.00  0.00    +0.000 A 
ATOM     19  CZ  PHE A   1       1.998   1.479 -20.529  0.00  0.00    +0.000 A 
ATOM     20  CE1 PHE A   1       0.699   1.501 -20.570  0.00  0.00    +0.000 A 
ATOM     21  CD1 PHE A   1       0.088   1.846 -21.665  0.00  0.00    +0.004 A 
ENDBRANCH  15  16
ENDBRANCH   1  15
TORSDOF 6
ENDMDL
MODEL 6
REMARK VINA RESULT:    -7.825      1.869      2.676
REMARK INTER + INTRA:         -11.156
REMARK INTER:                 -10.590
REMARK INTRA:                  -0.566
REMARK UNBOUND:                -0.587
REMARK  Name = ZINC000004762377
REMARK  6 active torsions:
REMARK  status: ('A' for Active; 'I' for Inactive)
REMARK    1  A    between atoms: C_2  and  CA_4
REMARK    2  A    between atoms: CA_4  and  CB_5
REMARK    3  A    between atoms: CA_4  and  N_12
REMARK    4  A    between atoms: CB_5  and  CG_6
REMARK    5  A    between atoms: N_12  and  C_13
REMARK    6  A    between atoms: C_13  and  C_14
REMARK                            x       y       z     vdW  Elec       q    Type
REMARK                         _______ _______ _______ _____ _____    ______ ____
ROOT
ATOM      1  CA  PHE A   1       0.461   2.332 -22.845  0.00  0.00    +0.114 C 
ENDROOT
BRANCH   1   2
ATOM      2  N   PHE A   1      -0.717   2.860 -22.703  0.00  0.00    +0.237 N 
ATOM      3  H1  PHE A   1      -1.109   2.353 -21.910  0.00  0.00    +0.202 HD
ATOM      4  H2  PHE A   1      -0.578   3.865 -22.595  0.00  0.00    +0.202 HD
BRANCH   2   5
ATOM      5  C   UNK A   0      -1.616   2.704 -23.629  0.00  0.00    +0.166 C 
BRANCH   5   6
ATOM      6  C   UNK A   0      -2.854   3.020 -23.394  0.00  0.00    -0.003 A 
ATOM      7  C   UNK A   0      -3.593   3.509 -24.344  0.00  0.00    +0.009 A 
ATOM      8  C   UNK A   0      -4.832   3.825 -24.109  0.00  0.00    +0.000 A 
ATOM      9  C   UNK A   0      -5.332   3.650 -22.922  0.00  0.00    +0.000 A 
ATOM     10  C   UNK A   0      -4.594   3.160 -21.971  0.00  0.00    +0.000 A 
ATOM     11  C   UNK A   0      -3.355   2.845 -22.207  0.00  0.00    +0.009 A 
ENDBRANCH   5   6
ENDBRANCH   2   5
ENDBRANCH   1   2
BRANCH   1  13
ATOM     12  O   PHE A   1       0.463   1.369 -20.809  0.00  0.00    -0.544 OA
ATOM     13  C   PHE A   1       0.845   1.375 -22.051  0.00  0.00    +0.090 C 
ATOM     14  OXT PHE A   1       1.609   0.425 -22.502  0.00  0.00    -0.544 OA
ENDBRANCH   1  13
BRANCH   1  15
ATOM     15  CB  PHE A   1       1.257   2.759 -23.780  0.00  0.00    +0.095 C 
BRANCH  15  16
ATOM     16  CG  PHE A   1       2.176   3.636 -23.500  0.00  0.00    -0.042 A 
ATOM     17  CD2 PHE A   1       1.848   4.876 -23.288  0.00  0.00    +0.004 A 
ATOM     18  CE2 PHE A   1       2.765   5.754 -23.008  0.00  0.00    +0.000 A 
ATOM     19  CZ  PHE A   1       4.011   5.390 -22.940  0.00  0.00    +0.000 A 
ATOM     20  CE1 PHE A   1       4.340   4.151 -23.152  0.00  0.00    +0.000 A 
ATOM     21  CD1 PHE A   1       3.422   3.273 -23.432  0.00  0.00    +0.004 A 
ENDBRANCH  15  16
ENDBRANCH   1  15
TORSDOF 6
ENDMDL
MODEL 7
REMARK VINA RESULT:    -7.667      2.909      4.980
REMARK INTER + INTRA:         -10.943
REMARK INTER:                 -10.151
REMARK INTRA:                  -0.792
REMARK UNBOUND:                -0.587
REMARK  Name = ZINC000004762377
REMARK  6 active torsions:
REMARK  status: ('A' for Active; 'I' for Inactive)
REMARK    1  A    between atoms: C_2  and  CA_4
REMARK    2  A    between atoms: CA_4  and  CB_5
REMARK    3  A    between atoms: CA_4  and  N_12
REMARK    4  A    between atoms: CB_5  and  CG_6
REMARK    5  A    between atoms: N_12  and  C_13
REMARK    6  A    between atoms: C_13  and  C_14
REMARK                            x       y       z     vdW  Elec       q    Type
REMARK                         _______ _______ _______ _____ _____    ______ ____
ROOT
ATOM      1  CA  PHE A   1      -2.393   2.964 -21.898  0.00  0.00    +0.114 C 
ENDROOT
BRANCH   1   2
ATOM      2  N   PHE A   1      -1.581   1.966 -22.077  0.00  0.00    +0.237 N 
ATOM      3  H1  PHE A   1      -2.107   1.168 -21.719  0.00  0.00    +0.202 HD
ATOM      4  H2  PHE A   1      -1.335   1.959 -23.067  0.00  0.00    +0.202 HD
BRANCH   2   5
ATOM      5  C   UNK A   0      -0.465   1.908 -21.413  0.00  0.00    +0.166 C 
BRANCH   5   6
ATOM      6  C   UNK A   0       0.669   1.884 -22.048  0.00  0.00    -0.003 A 
ATOM      7  C   UNK A   0       0.724   2.251 -23.294  0.00  0.00    +0.009 A 
ATOM      8  C   UNK A   0       1.858   2.227 -23.930  0.00  0.00    +0.000 A 
ATOM      9  C   UNK A   0       2.937   1.836 -23.319  0.00  0.00    +0.000 A 
ATOM     10  C   UNK A   0       2.882   1.469 -22.073  0.00  0.00    +0.000 A 
ATOM     11  C   UNK A   0       1.748   1.494 -21.438  0.00  0.00    +0.009 A 
ENDBRANCH   5   6
ENDBRANCH   2   5
ENDBRANCH   1   2
BRANCH   1  13
ATOM     12  O   PHE A   1      -2.948   3.729 -19.854  0.00  0.00    -0.544 OA
ATOM     13  C   PHE A   1      -3.202   2.970 -20.879  0.00  0.00    +0.090 C 
ATOM     14  OXT PHE A   1      -4.262   2.218 -20.886  0.00  0.00    -0.544 OA
ENDBRANCH   1  13
BRANCH   1  15
ATOM     15  CB  PHE A   1      -2.398   3.956 -22.738  0.00  0.00    +0.095 C 
BRANCH  15  16
ATOM     16  CG  PHE A   1      -2.886   3.794 -23.932  0.00  0.00    -0.042 A 
ATOM     17  CD2 PHE A   1      -2.088   3.589 -24.938  0.00  0.00    +0.004 A 
ATOM     18  CE2 PHE A   1      -2.575   3.427 -26.133  0.00  0.00    +0.000 A 
ATOM     19  CZ  PHE A   1      -3.860   3.469 -26.321  0.00  0.00    +0.000 A 
ATOM     20  CE1 PHE A   1      -4.659   3.673 -25.316  0.00  0.00    +0.000 A 
ATOM     21  CD1 PHE A   1      -4.171   3.836 -24.121  0.00  0.00    +0.004 A 
ENDBRANCH  15  16
ENDBRANCH   1  15
TORSDOF 6
ENDMDL
MODEL 8
REMARK VINA RESULT:    -7.623      2.355      5.261
REMARK INTER + INTRA:         -10.884
REMARK INTER:                 -10.305
REMARK INTRA:                  -0.579
REMARK UNBOUND:                -0.587
REMARK  Name = ZINC000004762377
REMARK  6 active torsions:
REMARK  status: ('A' for Active; 'I' for Inactive)
REMARK    1  A    between atoms: C_2  and  CA_4
REMARK    2  A    between atoms: CA_4  and  CB_5
REMARK    3  A    between atoms: CA_4  and  N_12
REMARK    4  A    between atoms: CB_5  and  CG_6
REMARK    5  A    between atoms: N_12  and  C_13
REMARK    6  A    between atoms: C_13  and  C_14
REMARK                            x       y       z     vdW  Elec       q    Type
REMARK                         _______ _______ _______ _____ _____    ______ ____
ROOT
ATOM      1  CA  PHE A   1      -0.719   2.887 -23.512  0.00  0.00    +0.114 C 
ENDROOT
BRANCH   1   2
ATOM      2  N   PHE A   1       0.155   2.615 -24.435  0.00  0.00    +0.237 N 
ATOM      3  H1  PHE A   1       0.697   1.853 -24.028  0.00  0.00    +0.202 HD
ATOM      4  H2  PHE A   1      -0.369   2.415 -25.287  0.00  0.00    +0.202 HD
BRANCH   2   5
ATOM      5  C   UNK A   0       1.062   3.491 -24.750  0.00  0.00    +0.166 C 
BRANCH   5   6
ATOM      6  C   UNK A   0       2.257   3.399 -24.248  0.00  0.00    -0.003 A 
ATOM      7  C   UNK A   0       2.779   4.412 -23.622  0.00  0.00    +0.009 A 
ATOM      8  C   UNK A   0       3.975   4.320 -23.119  0.00  0.00    +0.000 A 
ATOM      9  C   UNK A   0       4.648   3.215 -23.243  0.00  0.00    +0.000 A 
ATOM     10  C   UNK A   0       4.127   2.202 -23.869  0.00  0.00    +0.000 A 
ATOM     11  C   UNK A   0       2.931   2.295 -24.371  0.00  0.00    +0.009 A 
ENDBRANCH   5   6
ENDBRANCH   2   5
ENDBRANCH   1   2
BRANCH   1  13
ATOM     12  O   PHE A   1      -0.240   0.971 -22.431  0.00  0.00    -0.544 OA
ATOM     13  C   PHE A   1      -0.786   2.150 -22.442  0.00  0.00    +0.090 C 
ATOM     14  OXT PHE A   1      -1.400   2.594 -21.385  0.00  0.00    -0.544 OA
ENDBRANCH   1  13
BRANCH   1  15
ATOM     15  CB  PHE A   1      -1.525   3.897 -23.658  0.00  0.00    +0.095 C 
BRANCH  15  16
ATOM     16  CG  PHE A   1      -2.619   3.760 -24.348  0.00  0.00    -0.042 A 
ATOM     17  CD2 PHE A   1      -3.775   3.894 -23.769  0.00  0.00    +0.004 A 
ATOM     18  CE2 PHE A   1      -4.868   3.758 -24.458  0.00  0.00    +0.000 A 
ATOM     19  CZ  PHE A   1      -4.805   3.486 -25.728  0.00  0.00    +0.000 A 
ATOM     20  CE1 PHE A   1      -3.650   3.351 -26.308  0.00  0.00    +0.000 A 
ATOM     21  CD1 PHE A   1      -2.556   3.488 -25.618  0.00  0.00    +0.004 A 
ENDBRANCH  15  16
ENDBRANCH   1  15
TORSDOF 6
ENDMDL
MODEL 9
REMARK VINA RESULT:    -7.510      2.555      5.493
REMARK INTER + INTRA:         -10.731
REMARK INTER:                 -10.144
REMARK INTRA:                  -0.587
REMARK UNBOUND:                -0.587
REMARK  Name = ZINC000004762377
REMARK  6 active torsions:
REMARK  status: ('A' for Active; 'I' for Inactive)
REMARK    1  A    between atoms: C_2  and  CA_4
REMARK    2  A    between atoms: CA_4  and  CB_5
REMARK    3  A    between atoms: CA_4  and  N_12
REMARK    4  A    between atoms: CB_5  and  CG_6
REMARK    5  A    between atoms: N_12  and  C_13
REMARK    6  A    between atoms: C_13  and  C_14
REMARK                            x       y       z     vdW  Elec       q    Type
REMARK                         _______ _______ _______ _____ _____    ______ ____
ROOT
ATOM      1  CA  PHE A   1      -0.823   3.319 -23.838  0.00  0.00    +0.114 C 
ENDROOT
BRANCH   1   2
ATOM      2  N   PHE A   1      -0.276   2.226 -23.396  0.00  0.00    +0.237 N 
ATOM      3  H1  PHE A   1      -1.030   1.780 -22.874  0.00  0.00    +0.202 HD
ATOM      4  H2  PHE A   1       0.090   1.729 -24.208  0.00  0.00    +0.202 HD
BRANCH   2   5
ATOM      5  C   UNK A   0       0.691   2.288 -22.528  0.00  0.00    +0.166 C 
BRANCH   5   6
ATOM      6  C   UNK A   0       1.921   2.394 -22.932  0.00  0.00    -0.003 A 
ATOM      7  C   UNK A   0       2.514   3.551 -22.917  0.00  0.00    +0.009 A 
ATOM      8  C   UNK A   0       3.745   3.658 -23.321  0.00  0.00    +0.000 A 
ATOM      9  C   UNK A   0       4.384   2.606 -23.740  0.00  0.00    +0.000 A 
ATOM     10  C   UNK A   0       3.792   1.449 -23.756  0.00  0.00    +0.000 A 
ATOM     11  C   UNK A   0       2.561   1.343 -23.352  0.00  0.00    +0.009 A 
ENDBRANCH   5   6
ENDBRANCH   2   5
ENDBRANCH   1   2
BRANCH   1  13
ATOM     12  O   PHE A   1       0.360   4.143 -25.568  0.00  0.00    -0.544 OA
ATOM     13  C   PHE A   1      -0.737   3.625 -25.099  0.00  0.00    +0.090 C 
ATOM     14  OXT PHE A   1      -1.747   3.413 -25.889  0.00  0.00    -0.544 OA
ENDBRANCH   1  13
BRANCH   1  15
ATOM     15  CB  PHE A   1      -1.457   4.105 -23.019  0.00  0.00    +0.095 C 
BRANCH  15  16
ATOM     16  CG  PHE A   1      -2.573   3.716 -22.479  0.00  0.00    -0.042 A 
ATOM     17  CD2 PHE A   1      -3.665   3.698 -23.184  0.00  0.00    +0.004 A 
ATOM     18  CE2 PHE A   1      -4.782   3.309 -22.645  0.00  0.00    +0.000 A 
ATOM     19  CZ  PHE A   1      -4.807   2.939 -21.399  0.00  0.00    +0.000 A 
ATOM     20  CE1 PHE A   1      -3.716   2.957 -20.693  0.00  0.00    +0.000 A 
ATOM     21  CD1 PHE A   1      -2.598   3.346 -21.233  0.00  0.00    +0.004 A 
ENDBRANCH  15  16
ENDBRANCH   1  15
TORSDOF 6
ENDMDL
