MODEL 1
REMARK VINA RESULT:    -9.796      0.000      0.000
REMARK INTER + INTRA:         -11.437
REMARK INTER:                 -11.665
REMARK INTRA:                   0.228
REMARK UNBOUND:                 1.221
REMARK  Name = ZINC000096316364
REMARK  8 active torsions:
REMARK  status: ('A' for Active; 'I' for Inactive)
REMARK    1  A    between atoms: C_1  and  O_2
REMARK    2  A    between atoms: O_2  and  C_3
REMARK    3  A    between atoms: C_5  and  C_6
REMARK    4  A    between atoms: C_6  and  C_7
REMARK    5  A    between atoms: C_10  and  O_11
REMARK    6  A    between atoms: C_12  and  O_13
REMARK    7  A    between atoms: O_13  and  C_14
REMARK    8  A    between atoms: C_24  and  O_25
REMARK                            x       y       z     vdW  Elec       q    Type
REMARK                         _______ _______ _______ _____ _____    ______ ____
ROOT
ATOM      1  C   UNL     1       0.659   2.295 -23.111  0.00  0.00    +0.111 C 
ATOM      2  C   UNL     1      -0.513   2.570 -23.602  0.00  0.00    -0.020 A 
ATOM      3  C   UNL     1      -0.619   3.022 -24.816  0.00  0.00    +0.055 A 
ATOM      4  C   UNL     1      -1.791   3.297 -25.307  0.00  0.00    +0.159 A 
ATOM      5  C   UNL     1      -2.857   3.119 -24.584  0.00  0.00    +0.162 A 
ATOM      6  C   UNL     1      -2.751   2.666 -23.370  0.00  0.00    +0.053 A 
ATOM      7  C   UNL     1      -1.579   2.392 -22.879  0.00  0.00    -0.037 A 
ATOM      8  C   UNL     1      -1.472   1.939 -21.665  0.00  0.00    +0.054 C 
ATOM      9  C   UNL     1      -0.300   1.665 -21.174  0.00  0.00    +0.113 C 
ATOM     10  N   UNL     1       0.765   1.843 -21.897  0.00  0.00    -0.296 N 
ATOM     11  C   UNL     1       1.938   1.568 -21.405  0.00  0.00    +0.328 C 
ATOM     12  O   UNL     1       2.044   1.116 -20.192  0.00  0.00    -0.279 OA
ENDROOT
BRANCH   5  13
ATOM     13  O   UNL     1      -4.028   3.393 -25.075  0.00  0.00    -0.491 OA
ATOM     14  C   UNL     1      -4.842   4.167 -24.421  0.00  0.00    +0.277 C 
ENDBRANCH   5  13
BRANCH   4  15
ATOM     15  O   UNL     1      -1.897   3.749 -26.521  0.00  0.00    -0.503 OA
ATOM     16  H   UNL     1      -2.665   4.219 -26.780  0.00  0.00    +0.292 HD
ENDBRANCH   4  15
BRANCH   1  17
ATOM     17  C   UNL     1       1.725   2.473 -23.834  0.00  0.00    +0.062 C 
BRANCH  17  20
ATOM     18  C   UNL     1       4.681   4.115 -23.205  0.00  0.00    +0.162 A 
ATOM     19  C   UNL     1       3.841   3.170 -23.507  0.00  0.00    +0.053 A 
ATOM     20  C   UNL     1       2.565   3.418 -23.532  0.00  0.00    -0.042 A 
ATOM     21  C   UNL     1       2.129   4.611 -23.254  0.00  0.00    +0.007 A 
ATOM     22  C   UNL     1       2.969   5.556 -22.952  0.00  0.00    +0.049 A 
ATOM     23  C   UNL     1       4.245   5.308 -22.927  0.00  0.00    +0.158 A 
BRANCH  18  25
ATOM     24  C   UNL     1       6.418   2.908 -22.434  0.00  0.00    +0.277 C 
ATOM     25  O   UNL     1       5.957   3.868 -23.180  0.00  0.00    -0.491 OA
ENDBRANCH  18  25
BRANCH  23  26
ATOM     26  O   UNL     1       5.085   6.253 -22.625  0.00  0.00    -0.503 OA
ATOM     27  H   UNL     1       4.782   7.031 -22.201  0.00  0.00    +0.292 HD
ENDBRANCH  23  26
ENDBRANCH  17  20
ENDBRANCH   1  17
TORSDOF 6
ENDMDL
MODEL 2
REMARK VINA RESULT:    -9.385      1.793      7.016
REMARK INTER + INTRA:         -10.908
REMARK INTER:                 -11.422
REMARK INTRA:                   0.514
REMARK UNBOUND:                 1.221
REMARK  Name = ZINC000096316364
REMARK  8 active torsions:
REMARK  status: ('A' for Active; 'I' for Inactive)
REMARK    1  A    between atoms: C_1  and  O_2
REMARK    2  A    between atoms: O_2  and  C_3
REMARK    3  A    between atoms: C_5  and  C_6
REMARK    4  A    between atoms: C_6  and  C_7
REMARK    5  A    between atoms: C_10  and  O_11
REMARK    6  A    between atoms: C_12  and  O_13
REMARK    7  A    between atoms: O_13  and  C_14
REMARK    8  A    between atoms: C_24  and  O_25
REMARK                            x       y       z     vdW  Elec       q    Type
REMARK                         _______ _______ _______ _____ _____    ______ ____
ROOT
ATOM      1  C   UNL     1       0.185   2.331 -23.322  0.00  0.00    +0.111 C 
ATOM      2  C   UNL     1       1.341   2.248 -22.734  0.00  0.00    -0.020 A 
ATOM      3  C   UNL     1       1.464   1.558 -21.638  0.00  0.00    +0.055 A 
ATOM      4  C   UNL     1       2.620   1.475 -21.049  0.00  0.00    +0.159 A 
ATOM      5  C   UNL     1       3.653   2.081 -21.555  0.00  0.00    +0.162 A 
ATOM      6  C   UNL     1       3.530   2.771 -22.650  0.00  0.00    +0.053 A 
ATOM      7  C   UNL     1       2.374   2.854 -23.240  0.00  0.00    -0.037 A 
ATOM      8  C   UNL     1       2.250   3.543 -24.334  0.00  0.00    +0.054 C 
ATOM      9  C   UNL     1       1.094   3.627 -24.923  0.00  0.00    +0.113 C 
ATOM     10  N   UNL     1       0.062   3.021 -24.418  0.00  0.00    -0.296 N 
ATOM     11  C   UNL     1      -1.094   3.104 -25.007  0.00  0.00    +0.328 C 
ATOM     12  O   UNL     1      -1.217   3.793 -26.102  0.00  0.00    -0.279 OA
ENDROOT
BRANCH   5  13
ATOM     13  O   UNL     1       4.808   1.998 -20.966  0.00  0.00    -0.491 OA
ATOM     14  C   UNL     1       5.748   2.848 -21.256  0.00  0.00    +0.277 C 
ENDBRANCH   5  13
BRANCH   4  15
ATOM     15  O   UNL     1       2.743   0.786 -19.954  0.00  0.00    -0.503 OA
ATOM     16  H   UNL     1       3.595   0.557 -19.638  0.00  0.00    +0.292 HD
ENDBRANCH   4  15
BRANCH   1  17
ATOM     17  C   UNL     1      -0.848   1.725 -22.816  0.00  0.00    +0.062 C 
BRANCH  17  20
ATOM     18  C   UNL     1      -3.854   3.262 -22.158  0.00  0.00    +0.162 A 
ATOM     19  C   UNL     1      -2.932   2.576 -22.767  0.00  0.00    +0.053 A 
ATOM     20  C   UNL     1      -1.770   2.409 -22.208  0.00  0.00    -0.042 A 
ATOM     21  C   UNL     1      -1.531   2.928 -21.039  0.00  0.00    +0.007 A 
ATOM     22  C   UNL     1      -2.453   3.612 -20.431  0.00  0.00    +0.049 A 
ATOM     23  C   UNL     1      -3.614   3.779 -20.990  0.00  0.00    +0.158 A 
BRANCH  18  25
ATOM     24  C   UNL     1      -5.091   3.862 -23.940  0.00  0.00    +0.277 C 
ATOM     25  O   UNL     1      -5.015   3.429 -22.717  0.00  0.00    -0.491 OA
ENDBRANCH  18  25
BRANCH  23  26
ATOM     26  O   UNL     1      -4.536   4.464 -20.382  0.00  0.00    -0.503 OA
ATOM     27  H   UNL     1      -4.563   5.397 -20.471  0.00  0.00    +0.292 HD
ENDBRANCH  23  26
ENDBRANCH  17  20
ENDBRANCH   1  17
TORSDOF 6
ENDMDL
MODEL 3
REMARK VINA RESULT:    -9.038      1.719      6.559
REMARK INTER + INTRA:         -10.458
REMARK INTER:                 -11.035
REMARK INTRA:                   0.576
REMARK UNBOUND:                 1.221
REMARK  Name = ZINC000096316364
REMARK  8 active torsions:
REMARK  status: ('A' for Active; 'I' for Inactive)
REMARK    1  A    between atoms: C_1  and  O_2
REMARK    2  A    between atoms: O_2  and  C_3
REMARK    3  A    between atoms: C_5  and  C_6
REMARK    4  A    between atoms: C_6  and  C_7
REMARK    5  A    between atoms: C_10  and  O_11
REMARK    6  A    between atoms: C_12  and  O_13
REMARK    7  A    between atoms: O_13  and  C_14
REMARK    8  A    between atoms: C_24  and  O_25
REMARK                            x       y       z     vdW  Elec       q    Type
REMARK                         _______ _______ _______ _____ _____    ______ ____
ROOT
ATOM      1  C   UNL     1      -0.382   3.225 -22.517  0.00  0.00    +0.111 C 
ATOM      2  C   UNL     1       0.879   2.907 -22.517  0.00  0.00    -0.020 A 
ATOM      3  C   UNL     1       1.728   3.621 -23.196  0.00  0.00    +0.055 A 
ATOM      4  C   UNL     1       2.989   3.305 -23.197  0.00  0.00    +0.159 A 
ATOM      5  C   UNL     1       3.401   2.275 -22.519  0.00  0.00    +0.162 A 
ATOM      6  C   UNL     1       2.552   1.561 -21.841  0.00  0.00    +0.053 A 
ATOM      7  C   UNL     1       1.291   1.877 -21.840  0.00  0.00    -0.037 A 
ATOM      8  C   UNL     1       0.442   1.165 -21.162  0.00  0.00    +0.054 C 
ATOM      9  C   UNL     1      -0.819   1.481 -21.161  0.00  0.00    +0.113 C 
ATOM     10  N   UNL     1      -1.231   2.510 -21.838  0.00  0.00    -0.296 N 
ATOM     11  C   UNL     1      -2.492   2.827 -21.838  0.00  0.00    +0.328 C 
ATOM     12  O   UNL     1      -3.341   2.114 -21.159  0.00  0.00    -0.279 OA
ENDROOT
BRANCH   5  13
ATOM     13  O   UNL     1       4.661   1.958 -22.520  0.00  0.00    -0.491 OA
ATOM     14  C   UNL     1       5.090   0.996 -21.758  0.00  0.00    +0.277 C 
ENDBRANCH   5  13
BRANCH   4  15
ATOM     15  O   UNL     1       3.837   4.018 -23.875  0.00  0.00    -0.503 OA
ATOM     16  H   UNL     1       3.576   4.413 -24.684  0.00  0.00    +0.292 HD
ENDBRANCH   4  15
BRANCH   1  17
ATOM     17  C   UNL     1      -0.794   4.255 -23.195  0.00  0.00    +0.062 C 
BRANCH  17  20
ATOM     18  C   UNL     1      -3.561   4.266 -25.239  0.00  0.00    +0.162 A 
ATOM     19  C   UNL     1      -2.803   4.435 -24.195  0.00  0.00    +0.053 A 
ATOM     20  C   UNL     1      -1.552   4.086 -24.238  0.00  0.00    -0.042 A 
ATOM     21  C   UNL     1      -1.058   3.567 -25.323  0.00  0.00    +0.007 A 
ATOM     22  C   UNL     1      -1.815   3.398 -26.366  0.00  0.00    +0.049 A 
ATOM     23  C   UNL     1      -3.067   3.748 -26.324  0.00  0.00    +0.158 A 
BRANCH  18  25
ATOM     24  C   UNL     1      -5.602   4.098 -24.304  0.00  0.00    +0.277 C 
ATOM     25  O   UNL     1      -4.812   4.616 -25.197  0.00  0.00    -0.491 OA
ENDBRANCH  18  25
BRANCH  23  26
ATOM     26  O   UNL     1      -3.824   3.579 -27.366  0.00  0.00    -0.503 OA
ATOM     27  H   UNL     1      -3.465   3.217 -28.153  0.00  0.00    +0.292 HD
ENDBRANCH  23  26
ENDBRANCH  17  20
ENDBRANCH   1  17
TORSDOF 6
ENDMDL
MODEL 4
REMARK VINA RESULT:    -8.701      1.752      2.623
REMARK INTER + INTRA:         -10.023
REMARK INTER:                 -10.133
REMARK INTRA:                   0.111
REMARK UNBOUND:                 1.221
REMARK  Name = ZINC000096316364
REMARK  8 active torsions:
REMARK  status: ('A' for Active; 'I' for Inactive)
REMARK    1  A    between atoms: C_1  and  O_2
REMARK    2  A    between atoms: O_2  and  C_3
REMARK    3  A    between atoms: C_5  and  C_6
REMARK    4  A    between atoms: C_6  and  C_7
REMARK    5  A    between atoms: C_10  and  O_11
REMARK    6  A    between atoms: C_12  and  O_13
REMARK    7  A    between atoms: O_13  and  C_14
REMARK    8  A    between atoms: C_24  and  O_25
REMARK                            x       y       z     vdW  Elec       q    Type
REMARK                         _______ _______ _______ _____ _____    ______ ____
ROOT
ATOM      1  C   UNL     1       3.256   2.018 -23.123  0.00  0.00    +0.111 C 
ATOM      2  C   UNL     1       2.110   2.443 -23.567  0.00  0.00    -0.020 A 
ATOM      3  C   UNL     1       2.049   3.088 -24.695  0.00  0.00    +0.055 A 
ATOM      4  C   UNL     1       0.904   3.512 -25.139  0.00  0.00    +0.159 A 
ATOM      5  C   UNL     1      -0.181   3.293 -24.456  0.00  0.00    +0.162 A 
ATOM      6  C   UNL     1      -0.120   2.648 -23.329  0.00  0.00    +0.053 A 
ATOM      7  C   UNL     1       1.026   2.223 -22.884  0.00  0.00    -0.037 A 
ATOM      8  C   UNL     1       1.088   1.579 -21.758  0.00  0.00    +0.054 C 
ATOM      9  C   UNL     1       2.233   1.154 -21.313  0.00  0.00    +0.113 C 
ATOM     10  N   UNL     1       3.316   1.374 -21.996  0.00  0.00    -0.296 N 
ATOM     11  C   UNL     1       4.463   0.949 -21.551  0.00  0.00    +0.328 C 
ATOM     12  O   UNL     1       4.524   0.304 -20.424  0.00  0.00    -0.279 OA
ENDROOT
BRANCH   5  13
ATOM     13  O   UNL     1      -1.326   3.717 -24.900  0.00  0.00    -0.491 OA
ATOM     14  C   UNL     1      -2.168   4.284 -24.089  0.00  0.00    +0.277 C 
ENDBRANCH   5  13
BRANCH   4  15
ATOM     15  O   UNL     1       0.843   4.157 -26.266  0.00  0.00    -0.503 OA
ATOM     16  H   UNL     1       0.015   4.446 -26.596  0.00  0.00    +0.292 HD
ENDBRANCH   4  15
BRANCH   1  17
ATOM     17  C   UNL     1       4.340   2.238 -23.806  0.00  0.00    +0.062 C 
BRANCH  17  20
ATOM     18  C   UNL     1       7.173   4.131 -23.332  0.00  0.00    +0.162 A 
ATOM     19  C   UNL     1       6.400   3.132 -23.643  0.00  0.00    +0.053 A 
ATOM     20  C   UNL     1       5.113   3.236 -23.496  0.00  0.00    -0.042 A 
ATOM     21  C   UNL     1       4.598   4.339 -23.037  0.00  0.00    +0.007 A 
ATOM     22  C   UNL     1       5.370   5.337 -22.727  0.00  0.00    +0.049 A 
ATOM     23  C   UNL     1       6.658   5.233 -22.874  0.00  0.00    +0.158 A 
BRANCH  18  25
ATOM     24  C   UNL     1       8.948   3.302 -24.442  0.00  0.00    +0.277 C 
ATOM     25  O   UNL     1       8.460   4.027 -23.480  0.00  0.00    -0.491 OA
ENDBRANCH  18  25
BRANCH  23  26
ATOM     26  O   UNL     1       7.430   6.231 -22.564  0.00  0.00    -0.503 OA
ATOM     27  H   UNL     1       8.299   6.072 -22.251  0.00  0.00    +0.292 HD
ENDBRANCH  23  26
ENDBRANCH  17  20
ENDBRANCH   1  17
TORSDOF 6
ENDMDL
MODEL 5
REMARK VINA RESULT:    -8.531      2.224      3.632
REMARK INTER + INTRA:          -9.804
REMARK INTER:                 -10.363
REMARK INTRA:                   0.559
REMARK UNBOUND:                 1.221
REMARK  Name = ZINC000096316364
REMARK  8 active torsions:
REMARK  status: ('A' for Active; 'I' for Inactive)
REMARK    1  A    between atoms: C_1  and  O_2
REMARK    2  A    between atoms: O_2  and  C_3
REMARK    3  A    between atoms: C_5  and  C_6
REMARK    4  A    between atoms: C_6  and  C_7
REMARK    5  A    between atoms: C_10  and  O_11
REMARK    6  A    between atoms: C_12  and  O_13
REMARK    7  A    between atoms: O_13  and  C_14
REMARK    8  A    between atoms: C_24  and  O_25
REMARK                            x       y       z     vdW  Elec       q    Type
REMARK                         _______ _______ _______ _____ _____    ______ ____
ROOT
ATOM      1  C   UNL     1      -0.248   3.626 -23.312  0.00  0.00    +0.111 C 
ATOM      2  C   UNL     1      -1.448   3.477 -22.833  0.00  0.00    -0.020 A 
ATOM      3  C   UNL     1      -1.637   3.465 -21.547  0.00  0.00    +0.055 A 
ATOM      4  C   UNL     1      -2.836   3.315 -21.068  0.00  0.00    +0.159 A 
ATOM      5  C   UNL     1      -3.846   3.177 -21.875  0.00  0.00    +0.162 A 
ATOM      6  C   UNL     1      -3.657   3.188 -23.161  0.00  0.00    +0.053 A 
ATOM      7  C   UNL     1      -2.457   3.338 -23.640  0.00  0.00    -0.037 A 
ATOM      8  C   UNL     1      -2.267   3.350 -24.926  0.00  0.00    +0.054 C 
ATOM      9  C   UNL     1      -1.068   3.500 -25.405  0.00  0.00    +0.113 C 
ATOM     10  N   UNL     1      -0.060   3.638 -24.598  0.00  0.00    -0.296 N 
ATOM     11  C   UNL     1       1.141   3.788 -25.077  0.00  0.00    +0.328 C 
ATOM     12  O   UNL     1       1.330   3.799 -26.363  0.00  0.00    -0.279 OA
ENDROOT
BRANCH   5  13
ATOM     13  O   UNL     1      -5.045   3.027 -21.396  0.00  0.00    -0.491 OA
ATOM     14  C   UNL     1      -6.075   3.117 -22.184  0.00  0.00    +0.277 C 
ENDBRANCH   5  13
BRANCH   4  15
ATOM     15  O   UNL     1      -3.026   3.304 -19.782  0.00  0.00    -0.503 OA
ATOM     16  H   UNL     1      -2.522   3.869 -19.229  0.00  0.00    +0.292 HD
ENDBRANCH   4  15
BRANCH   1  17
ATOM     17  C   UNL     1       0.762   3.765 -22.504  0.00  0.00    +0.062 C 
BRANCH  17  20
ATOM     18  C   UNL     1       3.945   2.465 -22.595  0.00  0.00    +0.162 A 
ATOM     19  C   UNL     1       2.969   3.324 -22.568  0.00  0.00    +0.053 A 
ATOM     20  C   UNL     1       1.738   2.907 -22.532  0.00  0.00    -0.042 A 
ATOM     21  C   UNL     1       1.483   1.632 -22.523  0.00  0.00    +0.007 A 
ATOM     22  C   UNL     1       2.459   0.774 -22.551  0.00  0.00    +0.049 A 
ATOM     23  C   UNL     1       3.690   1.191 -22.587  0.00  0.00    +0.158 A 
BRANCH  18  25
ATOM     24  C   UNL     1       5.604   3.556 -23.657  0.00  0.00    +0.277 C 
ATOM     25  O   UNL     1       5.176   2.882 -22.631  0.00  0.00    -0.491 OA
ENDBRANCH  18  25
BRANCH  23  26
ATOM     26  O   UNL     1       4.666   0.333 -22.614  0.00  0.00    -0.503 OA
ATOM     27  H   UNL     1       5.153   0.152 -21.834  0.00  0.00    +0.292 HD
ENDBRANCH  23  26
ENDBRANCH  17  20
ENDBRANCH   1  17
TORSDOF 6
ENDMDL
MODEL 6
REMARK VINA RESULT:    -8.219      1.968      6.800
REMARK INTER + INTRA:          -9.401
REMARK INTER:                  -9.718
REMARK INTRA:                   0.317
REMARK UNBOUND:                 1.221
REMARK  Name = ZINC000096316364
REMARK  8 active torsions:
REMARK  status: ('A' for Active; 'I' for Inactive)
REMARK    1  A    between atoms: C_1  and  O_2
REMARK    2  A    between atoms: O_2  and  C_3
REMARK    3  A    between atoms: C_5  and  C_6
REMARK    4  A    between atoms: C_6  and  C_7
REMARK    5  A    between atoms: C_10  and  O_11
REMARK    6  A    between atoms: C_12  and  O_13
REMARK    7  A    between atoms: O_13  and  C_14
REMARK    8  A    between atoms: C_24  and  O_25
REMARK                            x       y       z     vdW  Elec       q    Type
REMARK                         _______ _______ _______ _____ _____    ______ ____
ROOT
ATOM      1  C   UNL     1       2.664   3.638 -24.007  0.00  0.00    +0.111 C 
ATOM      2  C   UNL     1       3.461   4.466 -23.399  0.00  0.00    -0.020 A 
ATOM      3  C   UNL     1       3.052   5.665 -23.108  0.00  0.00    +0.055 A 
ATOM      4  C   UNL     1       3.847   6.494 -22.500  0.00  0.00    +0.159 A 
ATOM      5  C   UNL     1       5.053   6.124 -22.184  0.00  0.00    +0.162 A 
ATOM      6  C   UNL     1       5.462   4.925 -22.475  0.00  0.00    +0.053 A 
ATOM      7  C   UNL     1       4.666   4.096 -23.083  0.00  0.00    -0.037 A 
ATOM      8  C   UNL     1       5.075   2.897 -23.374  0.00  0.00    +0.054 C 
ATOM      9  C   UNL     1       4.279   2.069 -23.982  0.00  0.00    +0.113 C 
ATOM     10  N   UNL     1       3.075   2.439 -24.298  0.00  0.00    -0.296 N 
ATOM     11  C   UNL     1       2.278   1.609 -24.906  0.00  0.00    +0.328 C 
ATOM     12  O   UNL     1       2.687   0.411 -25.197  0.00  0.00    -0.279 OA
ENDROOT
BRANCH   5  13
ATOM     13  O   UNL     1       5.848   6.953 -21.576  0.00  0.00    -0.491 OA
ATOM     14  C   UNL     1       6.808   6.500 -20.825  0.00  0.00    +0.277 C 
ENDBRANCH   5  13
BRANCH   4  15
ATOM     15  O   UNL     1       3.438   7.693 -22.209  0.00  0.00    -0.503 OA
ATOM     16  H   UNL     1       2.523   7.860 -22.091  0.00  0.00    +0.292 HD
ENDBRANCH   4  15
BRANCH   1  17
ATOM     17  C   UNL     1       1.459   4.008 -24.323  0.00  0.00    +0.062 C 
BRANCH  17  20
ATOM     18  C   UNL     1      -1.774   3.184 -23.488  0.00  0.00    +0.162 A 
ATOM     19  C   UNL     1      -0.757   3.646 -24.153  0.00  0.00    +0.053 A 
ATOM     20  C   UNL     1       0.442   3.546 -23.659  0.00  0.00    -0.042 A 
ATOM     21  C   UNL     1       0.623   2.982 -22.501  0.00  0.00    +0.007 A 
ATOM     22  C   UNL     1      -0.394   2.520 -21.837  0.00  0.00    +0.049 A 
ATOM     23  C   UNL     1      -1.593   2.621 -22.330  0.00  0.00    +0.158 A 
BRANCH  18  25
ATOM     24  C   UNL     1      -3.277   4.286 -24.751  0.00  0.00    +0.277 C 
ATOM     25  O   UNL     1      -2.973   3.284 -23.981  0.00  0.00    -0.491 OA
ENDBRANCH  18  25
BRANCH  23  26
ATOM     26  O   UNL     1      -2.610   2.159 -21.666  0.00  0.00    -0.503 OA
ATOM     27  H   UNL     1      -2.751   2.426 -20.779  0.00  0.00    +0.292 HD
ENDBRANCH  23  26
ENDBRANCH  17  20
ENDBRANCH   1  17
TORSDOF 6
ENDMDL
MODEL 7
REMARK VINA RESULT:    -8.107      2.502      6.536
REMARK INTER + INTRA:          -9.255
REMARK INTER:                  -9.881
REMARK INTRA:                   0.626
REMARK UNBOUND:                 1.221
REMARK  Name = ZINC000096316364
REMARK  8 active torsions:
REMARK  status: ('A' for Active; 'I' for Inactive)
REMARK    1  A    between atoms: C_1  and  O_2
REMARK    2  A    between atoms: O_2  and  C_3
REMARK    3  A    between atoms: C_5  and  C_6
REMARK    4  A    between atoms: C_6  and  C_7
REMARK    5  A    between atoms: C_10  and  O_11
REMARK    6  A    between atoms: C_12  and  O_13
REMARK    7  A    between atoms: O_13  and  C_14
REMARK    8  A    between atoms: C_24  and  O_25
REMARK                            x       y       z     vdW  Elec       q    Type
REMARK                         _______ _______ _______ _____ _____    ______ ____
ROOT
ATOM      1  C   UNL     1      -1.385   3.590 -22.675  0.00  0.00    +0.111 C 
ATOM      2  C   UNL     1      -0.298   3.111 -23.204  0.00  0.00    -0.020 A 
ATOM      3  C   UNL     1       0.082   3.512 -24.382  0.00  0.00    +0.055 A 
ATOM      4  C   UNL     1       1.168   3.034 -24.912  0.00  0.00    +0.159 A 
ATOM      5  C   UNL     1       1.874   2.155 -24.265  0.00  0.00    +0.162 A 
ATOM      6  C   UNL     1       1.495   1.754 -23.088  0.00  0.00    +0.053 A 
ATOM      7  C   UNL     1       0.408   2.233 -22.557  0.00  0.00    -0.037 A 
ATOM      8  C   UNL     1       0.028   1.833 -21.381  0.00  0.00    +0.054 C 
ATOM      9  C   UNL     1      -1.058   2.311 -20.851  0.00  0.00    +0.113 C 
ATOM     10  N   UNL     1      -1.764   3.189 -21.498  0.00  0.00    -0.296 N 
ATOM     11  C   UNL     1      -2.851   3.668 -20.968  0.00  0.00    +0.328 C 
ATOM     12  O   UNL     1      -3.231   3.267 -19.791  0.00  0.00    -0.279 OA
ENDROOT
BRANCH   5  13
ATOM     13  O   UNL     1       2.960   1.677 -24.795  0.00  0.00    -0.491 OA
ATOM     14  C   UNL     1       4.065   1.657 -24.109  0.00  0.00    +0.277 C 
ENDBRANCH   5  13
BRANCH   4  15
ATOM     15  O   UNL     1       1.547   3.434 -26.089  0.00  0.00    -0.503 OA
ATOM     16  H   UNL     1       0.916   3.548 -26.771  0.00  0.00    +0.292 HD
ENDBRANCH   4  15
BRANCH   1  17
ATOM     17  C   UNL     1      -2.092   4.469 -23.322  0.00  0.00    +0.062 C 
BRANCH  17  20
ATOM     18  C   UNL     1      -3.936   3.228 -25.946  0.00  0.00    +0.162 A 
ATOM     19  C   UNL     1      -2.919   3.609 -25.231  0.00  0.00    +0.053 A 
ATOM     20  C   UNL     1      -3.107   4.087 -24.037  0.00  0.00    -0.042 A 
ATOM     21  C   UNL     1      -4.313   4.183 -23.558  0.00  0.00    +0.007 A 
ATOM     22  C   UNL     1      -5.329   3.802 -24.273  0.00  0.00    +0.049 A 
ATOM     23  C   UNL     1      -5.140   3.324 -25.467  0.00  0.00    +0.158 A 
BRANCH  18  25
ATOM     24  C   UNL     1      -3.237   3.503 -28.069  0.00  0.00    +0.277 C 
ATOM     25  O   UNL     1      -3.747   2.750 -27.141  0.00  0.00    -0.491 OA
ENDBRANCH  18  25
BRANCH  23  26
ATOM     26  O   UNL     1      -6.156   2.942 -26.182  0.00  0.00    -0.503 OA
ATOM     27  H   UNL     1      -6.987   2.795 -25.775  0.00  0.00    +0.292 HD
ENDBRANCH  23  26
ENDBRANCH  17  20
ENDBRANCH   1  17
TORSDOF 6
ENDMDL
MODEL 8
REMARK VINA RESULT:    -8.062      1.978      6.849
REMARK INTER + INTRA:          -9.197
REMARK INTER:                  -9.767
REMARK INTRA:                   0.570
REMARK UNBOUND:                 1.221
REMARK  Name = ZINC000096316364
REMARK  8 active torsions:
REMARK  status: ('A' for Active; 'I' for Inactive)
REMARK    1  A    between atoms: C_1  and  O_2
REMARK    2  A    between atoms: O_2  and  C_3
REMARK    3  A    between atoms: C_5  and  C_6
REMARK    4  A    between atoms: C_6  and  C_7
REMARK    5  A    between atoms: C_10  and  O_11
REMARK    6  A    between atoms: C_12  and  O_13
REMARK    7  A    between atoms: O_13  and  C_14
REMARK    8  A    between atoms: C_24  and  O_25
REMARK                            x       y       z     vdW  Elec       q    Type
REMARK                         _______ _______ _______ _____ _____    ______ ____
ROOT
ATOM      1  C   UNL     1       3.991   2.550 -23.120  0.00  0.00    +0.111 C 
ATOM      2  C   UNL     1       4.981   3.240 -22.637  0.00  0.00    -0.020 A 
ATOM      3  C   UNL     1       5.330   4.359 -23.201  0.00  0.00    +0.055 A 
ATOM      4  C   UNL     1       6.320   5.048 -22.719  0.00  0.00    +0.159 A 
ATOM      5  C   UNL     1       6.963   4.620 -21.673  0.00  0.00    +0.162 A 
ATOM      6  C   UNL     1       6.615   3.501 -21.109  0.00  0.00    +0.053 A 
ATOM      7  C   UNL     1       5.624   2.811 -21.591  0.00  0.00    -0.037 A 
ATOM      8  C   UNL     1       5.275   1.693 -21.029  0.00  0.00    +0.054 C 
ATOM      9  C   UNL     1       4.285   1.003 -21.511  0.00  0.00    +0.113 C 
ATOM     10  N   UNL     1       3.643   1.432 -22.556  0.00  0.00    -0.296 N 
ATOM     11  C   UNL     1       2.652   0.741 -23.039  0.00  0.00    +0.328 C 
ATOM     12  O   UNL     1       2.303  -0.377 -22.475  0.00  0.00    -0.279 OA
ENDROOT
BRANCH   5  13
ATOM     13  O   UNL     1       7.953   5.309 -21.191  0.00  0.00    -0.491 OA
ATOM     14  C   UNL     1       8.268   5.204 -19.934  0.00  0.00    +0.277 C 
ENDBRANCH   5  13
BRANCH   4  15
ATOM     15  O   UNL     1       6.669   6.167 -23.282  0.00  0.00    -0.503 OA
ATOM     16  H   UNL     1       6.234   6.963 -23.050  0.00  0.00    +0.292 HD
ENDBRANCH   4  15
BRANCH   1  17
ATOM     17  C   UNL     1       3.348   2.979 -24.166  0.00  0.00    +0.062 C 
BRANCH  17  20
ATOM     18  C   UNL     1       0.015   3.756 -24.510  0.00  0.00    +0.162 A 
ATOM     19  C   UNL     1       1.156   3.148 -24.651  0.00  0.00    +0.053 A 
ATOM     20  C   UNL     1       2.208   3.586 -24.025  0.00  0.00    -0.042 A 
ATOM     21  C   UNL     1       2.119   4.632 -23.257  0.00  0.00    +0.007 A 
ATOM     22  C   UNL     1       0.978   5.239 -23.116  0.00  0.00    +0.049 A 
ATOM     23  C   UNL     1      -0.073   4.801 -23.742  0.00  0.00    +0.158 A 
BRANCH  18  25
ATOM     24  C   UNL     1      -1.920   2.605 -24.503  0.00  0.00    +0.277 C 
ATOM     25  O   UNL     1      -1.036   3.318 -25.136  0.00  0.00    -0.491 OA
ENDBRANCH  18  25
BRANCH  23  26
ATOM     26  O   UNL     1      -1.214   5.408 -23.601  0.00  0.00    -0.503 OA
ATOM     27  H   UNL     1      -1.569   5.545 -22.745  0.00  0.00    +0.292 HD
ENDBRANCH  23  26
ENDBRANCH  17  20
ENDBRANCH   1  17
TORSDOF 6
ENDMDL
MODEL 9
REMARK VINA RESULT:    -7.661      1.874      6.994
REMARK INTER + INTRA:          -8.679
REMARK INTER:                  -9.901
REMARK INTRA:                   1.221
REMARK UNBOUND:                 1.221
REMARK  Name = ZINC000096316364
REMARK  8 active torsions:
REMARK  status: ('A' for Active; 'I' for Inactive)
REMARK    1  A    between atoms: C_1  and  O_2
REMARK    2  A    between atoms: O_2  and  C_3
REMARK    3  A    between atoms: C_5  and  C_6
REMARK    4  A    between atoms: C_6  and  C_7
REMARK    5  A    between atoms: C_10  and  O_11
REMARK    6  A    between atoms: C_12  and  O_13
REMARK    7  A    between atoms: O_13  and  C_14
REMARK    8  A    between atoms: C_24  and  O_25
REMARK                            x       y       z     vdW  Elec       q    Type
REMARK                         _______ _______ _______ _____ _____    ______ ____
ROOT
ATOM      1  C   UNL     1       1.295   3.476 -23.495  0.00  0.00    +0.111 C 
ATOM      2  C   UNL     1       2.549   3.185 -23.317  0.00  0.00    -0.020 A 
ATOM      3  C   UNL     1       2.941   1.946 -23.357  0.00  0.00    +0.055 A 
ATOM      4  C   UNL     1       4.195   1.654 -23.179  0.00  0.00    +0.159 A 
ATOM      5  C   UNL     1       5.058   2.602 -22.961  0.00  0.00    +0.162 A 
ATOM      6  C   UNL     1       4.667   3.841 -22.921  0.00  0.00    +0.053 A 
ATOM      7  C   UNL     1       3.412   4.133 -23.099  0.00  0.00    -0.037 A 
ATOM      8  C   UNL     1       3.020   5.371 -23.058  0.00  0.00    +0.054 C 
ATOM      9  C   UNL     1       1.766   5.662 -23.236  0.00  0.00    +0.113 C 
ATOM     10  N   UNL     1       0.904   4.715 -23.455  0.00  0.00    -0.296 N 
ATOM     11  C   UNL     1      -0.351   5.007 -23.633  0.00  0.00    +0.328 C 
ATOM     12  O   UNL     1      -0.742   6.246 -23.593  0.00  0.00    -0.279 OA
ENDROOT
BRANCH   5  13
ATOM     13  O   UNL     1       6.312   2.310 -22.783  0.00  0.00    -0.491 OA
ATOM     14  C   UNL     1       7.194   3.261 -22.696  0.00  0.00    +0.277 C 
ENDBRANCH   5  13
BRANCH   4  15
ATOM     15  O   UNL     1       4.586   0.415 -23.220  0.00  0.00    -0.503 OA
ATOM     16  H   UNL     1       4.392  -0.113 -23.969  0.00  0.00    +0.292 HD
ENDBRANCH   4  15
BRANCH   1  17
ATOM     17  C   UNL     1       0.432   2.528 -23.714  0.00  0.00    +0.062 C 
BRANCH  17  20
ATOM     18  C   UNL     1      -2.903   2.605 -22.873  0.00  0.00    +0.162 A 
ATOM     19  C   UNL     1      -1.811   2.665 -23.578  0.00  0.00    +0.053 A 
ATOM     20  C   UNL     1      -0.659   2.468 -23.010  0.00  0.00    -0.042 A 
ATOM     21  C   UNL     1      -0.598   2.209 -21.736  0.00  0.00    +0.007 A 
ATOM     22  C   UNL     1      -1.688   2.148 -21.032  0.00  0.00    +0.049 A 
ATOM     23  C   UNL     1      -2.841   2.346 -21.601  0.00  0.00    +0.158 A 
BRANCH  18  25
ATOM     24  C   UNL     1      -4.327   3.956 -23.975  0.00  0.00    +0.277 C 
ATOM     25  O   UNL     1      -4.055   2.802 -23.441  0.00  0.00    -0.491 OA
ENDBRANCH  18  25
BRANCH  23  26
ATOM     26  O   UNL     1      -3.931   2.285 -20.896  0.00  0.00    -0.503 OA
ATOM     27  H   UNL     1      -3.973   2.704 -20.059  0.00  0.00    +0.292 HD
ENDBRANCH  23  26
ENDBRANCH  17  20
ENDBRANCH   1  17
TORSDOF 6
ENDMDL
