MODEL 1
REMARK VINA RESULT:    -8.789      0.000      0.000
REMARK INTER + INTRA:         -12.735
REMARK INTER:                 -12.232
REMARK INTRA:                  -0.503
REMARK UNBOUND:                -0.092
REMARK  Name = ZINC000000155939
REMARK  8 active torsions:
REMARK  status: ('A' for Active; 'I' for Inactive)
REMARK    1  A    between atoms: C_2  and  O_16
REMARK    2  A    between atoms: N_3  and  CA_4
REMARK    3  A    between atoms: CA_4  and  CB_5
REMARK    4  A    between atoms: CA_4  and  C_13
REMARK    5  A    between atoms: CB_5  and  CG_6
REMARK    6  A    between atoms: CZ_9  and  OH_10
REMARK    7  A    between atoms: O_16  and  C_17
REMARK    8  A    between atoms: C_17  and  C_18
REMARK                            x       y       z     vdW  Elec       q    Type
REMARK                         _______ _______ _______ _____ _____    ______ ____
ROOT
ATOM      1  CA  TYR A   1       1.443   3.017 -23.570  0.00  0.00    +0.126 C 
ENDROOT
BRANCH   1   4
ATOM      2  O   UNK A   0      -0.871   1.870 -23.871  0.00  0.00    -0.226 OA
ATOM      3  C   UNK A   0      -0.539   2.374 -22.718  0.00  0.00    +0.401 C 
ATOM      4  N   TYR A   1       0.618   2.947 -22.569  0.00  0.00    -0.273 N 
ATOM      5  H   TYR A   1       0.868   3.329 -21.697  0.00  0.00    +0.153 HD
BRANCH   3   6
ATOM      6  O   UNK A   0      -1.365   2.305 -21.717  0.00  0.00    -0.446 OA
BRANCH   6   7
ATOM      7  C   UNK A   0      -2.146   3.309 -21.447  0.00  0.00    +0.269 C 
BRANCH   7   8
ATOM      8  C   UNK A   0      -3.402   3.265 -21.780  0.00  0.00    -0.010 A 
ATOM      9  C   UNK A   0      -4.265   2.698 -20.990  0.00  0.00    +0.007 A 
ATOM     10  C   UNK A   0      -5.520   2.654 -21.323  0.00  0.00    +0.000 A 
ATOM     11  C   UNK A   0      -5.913   3.177 -22.447  0.00  0.00    +0.000 A 
ATOM     12  C   UNK A   0      -5.050   3.744 -23.237  0.00  0.00    +0.000 A 
ATOM     13  C   UNK A   0      -3.794   3.788 -22.903  0.00  0.00    +0.007 A 
ENDBRANCH   7   8
ENDBRANCH   6   7
ENDBRANCH   3   6
ENDBRANCH   1   4
BRANCH   1  14
ATOM     14  C   TYR A   1       1.363   4.004 -24.412  0.00  0.00    +0.062 C 
ATOM     15  OXT TYR A   1       1.270   5.225 -23.975  0.00  0.00    -0.548 OA
ATOM     16  O   TYR A   1       1.376   3.771 -25.691  0.00  0.00    -0.548 OA
ENDBRANCH   1  14
BRANCH   1  17
ATOM     17  CB  TYR A   1       2.350   2.099 -23.731  0.00  0.00    +0.063 C 
BRANCH  17  18
ATOM     18  CG  TYR A   1       3.180   1.829 -22.768  0.00  0.00    -0.045 A 
ATOM     19  CD2 TYR A   1       3.042   0.736 -22.077  0.00  0.00    +0.007 A 
ATOM     20  CE2 TYR A   1       3.872   0.466 -21.114  0.00  0.00    +0.045 A 
ATOM     21  CZ  TYR A   1       4.841   1.289 -20.842  0.00  0.00    +0.117 A 
ATOM     22  CE1 TYR A   1       4.979   2.382 -21.532  0.00  0.00    +0.045 A 
ATOM     23  CD1 TYR A   1       4.149   2.652 -22.496  0.00  0.00    +0.007 A 
BRANCH  21  24
ATOM     24  OH  TYR A   1       5.672   1.020 -19.878  0.00  0.00    -0.507 OA
ATOM     25  HH  TYR A   1       6.293   1.664 -19.602  0.00  0.00    +0.292 HD
ENDBRANCH  21  24
ENDBRANCH  17  18
ENDBRANCH   1  17
TORSDOF 8
ENDMDL
MODEL 2
REMARK VINA RESULT:    -8.708      1.179      1.865
REMARK INTER + INTRA:         -12.618
REMARK INTER:                 -12.469
REMARK INTRA:                  -0.148
REMARK UNBOUND:                -0.092
REMARK  Name = ZINC000000155939
REMARK  8 active torsions:
REMARK  status: ('A' for Active; 'I' for Inactive)
REMARK    1  A    between atoms: C_2  and  O_16
REMARK    2  A    between atoms: N_3  and  CA_4
REMARK    3  A    between atoms: CA_4  and  CB_5
REMARK    4  A    between atoms: CA_4  and  C_13
REMARK    5  A    between atoms: CB_5  and  CG_6
REMARK    6  A    between atoms: CZ_9  and  OH_10
REMARK    7  A    between atoms: O_16  and  C_17
REMARK    8  A    between atoms: C_17  and  C_18
REMARK                            x       y       z     vdW  Elec       q    Type
REMARK                         _______ _______ _______ _____ _____    ______ ____
ROOT
ATOM      1  CA  TYR A   1       1.656   2.889 -23.682  0.00  0.00    +0.126 C 
ENDROOT
BRANCH   1   4
ATOM      2  O   UNK A   0       0.517   5.226 -23.721  0.00  0.00    -0.226 OA
ATOM      3  C   UNK A   0      -0.130   4.195 -23.263  0.00  0.00    +0.401 C 
ATOM      4  N   TYR A   1       0.441   3.027 -23.244  0.00  0.00    -0.273 N 
ATOM      5  H   TYR A   1      -0.049   2.247 -22.897  0.00  0.00    +0.153 HD
BRANCH   3   6
ATOM      6  O   UNK A   0      -1.345   4.333 -22.824  0.00  0.00    -0.446 OA
BRANCH   6   7
ATOM      7  C   UNK A   0      -2.327   3.736 -23.432  0.00  0.00    +0.269 C 
BRANCH   7   8
ATOM      8  C   UNK A   0      -3.386   3.382 -22.766  0.00  0.00    -0.010 A 
ATOM      9  C   UNK A   0      -3.267   2.672 -21.683  0.00  0.00    +0.007 A 
ATOM     10  C   UNK A   0      -4.325   2.318 -21.018  0.00  0.00    +0.000 A 
ATOM     11  C   UNK A   0      -5.504   2.673 -21.435  0.00  0.00    +0.000 A 
ATOM     12  C   UNK A   0      -5.624   3.383 -22.518  0.00  0.00    +0.000 A 
ATOM     13  C   UNK A   0      -4.565   3.737 -23.183  0.00  0.00    +0.007 A 
ENDBRANCH   7   8
ENDBRANCH   6   7
ENDBRANCH   3   6
ENDBRANCH   1   4
BRANCH   1  14
ATOM     14  C   TYR A   1       1.870   2.347 -24.845  0.00  0.00    +0.062 C 
ATOM     15  OXT TYR A   1       2.311   1.127 -24.922  0.00  0.00    -0.548 OA
ATOM     16  O   TYR A   1       1.643   3.026 -25.930  0.00  0.00    -0.548 OA
ENDBRANCH   1  14
BRANCH   1  17
ATOM     17  CB  TYR A   1       2.658   3.294 -22.960  0.00  0.00    +0.063 C 
BRANCH  17  18
ATOM     18  CG  TYR A   1       3.372   2.432 -22.298  0.00  0.00    -0.045 A 
ATOM     19  CD2 TYR A   1       4.654   2.359 -22.500  0.00  0.00    +0.007 A 
ATOM     20  CE2 TYR A   1       5.369   1.498 -21.839  0.00  0.00    +0.045 A 
ATOM     21  CZ  TYR A   1       4.801   0.710 -20.975  0.00  0.00    +0.117 A 
ATOM     22  CE1 TYR A   1       3.518   0.783 -20.773  0.00  0.00    +0.045 A 
ATOM     23  CD1 TYR A   1       2.804   1.644 -21.435  0.00  0.00    +0.007 A 
BRANCH  21  24
ATOM     24  OH  TYR A   1       5.514  -0.152 -20.313  0.00  0.00    -0.507 OA
ATOM     25  HH  TYR A   1       5.703  -0.006 -19.407  0.00  0.00    +0.292 HD
ENDBRANCH  21  24
ENDBRANCH  17  18
ENDBRANCH   1  17
TORSDOF 8
ENDMDL
MODEL 3
REMARK VINA RESULT:    -8.654      1.927      2.927
REMARK INTER + INTRA:         -12.540
REMARK INTER:                 -12.075
REMARK INTRA:                  -0.465
REMARK UNBOUND:                -0.092
REMARK  Name = ZINC000000155939
REMARK  8 active torsions:
REMARK  status: ('A' for Active; 'I' for Inactive)
REMARK    1  A    between atoms: C_2  and  O_16
REMARK    2  A    between atoms: N_3  and  CA_4
REMARK    3  A    between atoms: CA_4  and  CB_5
REMARK    4  A    between atoms: CA_4  and  C_13
REMARK    5  A    between atoms: CB_5  and  CG_6
REMARK    6  A    between atoms: CZ_9  and  OH_10
REMARK    7  A    between atoms: O_16  and  C_17
REMARK    8  A    between atoms: C_17  and  C_18
REMARK                            x       y       z     vdW  Elec       q    Type
REMARK                         _______ _______ _______ _____ _____    ______ ____
ROOT
ATOM      1  CA  TYR A   1       1.782   1.820 -22.448  0.00  0.00    +0.126 C 
ENDROOT
BRANCH   1   4
ATOM      2  O   UNK A   0      -0.644   1.371 -23.270  0.00  0.00    -0.226 OA
ATOM      3  C   UNK A   0      -0.442   2.041 -22.173  0.00  0.00    +0.401 C 
ATOM      4  N   TYR A   1       0.771   2.265 -21.763  0.00  0.00    -0.273 N 
ATOM      5  H   TYR A   1       0.923   2.772 -20.933  0.00  0.00    +0.153 HD
BRANCH   3   6
ATOM      6  O   UNK A   0      -1.453   2.486 -21.489  0.00  0.00    -0.446 OA
BRANCH   6   7
ATOM      7  C   UNK A   0      -1.997   3.625 -21.798  0.00  0.00    +0.269 C 
BRANCH   7   8
ATOM      8  C   UNK A   0      -3.148   3.655 -22.402  0.00  0.00    -0.010 A 
ATOM      9  C   UNK A   0      -4.235   3.378 -21.745  0.00  0.00    +0.007 A 
ATOM     10  C   UNK A   0      -5.385   3.408 -22.349  0.00  0.00    +0.000 A 
ATOM     11  C   UNK A   0      -5.449   3.714 -23.610  0.00  0.00    +0.000 A 
ATOM     12  C   UNK A   0      -4.362   3.991 -24.268  0.00  0.00    +0.000 A 
ATOM     13  C   UNK A   0      -3.212   3.961 -23.664  0.00  0.00    +0.007 A 
ENDBRANCH   7   8
ENDBRANCH   6   7
ENDBRANCH   3   6
ENDBRANCH   1   4
BRANCH   1  14
ATOM     14  C   TYR A   1       2.340   0.691 -22.124  0.00  0.00    +0.062 C 
ATOM     15  OXT TYR A   1       2.902   0.554 -20.960  0.00  0.00    -0.548 OA
ATOM     16  O   TYR A   1       2.335  -0.301 -22.964  0.00  0.00    -0.548 OA
ENDBRANCH   1  14
BRANCH   1  17
ATOM     17  CB  TYR A   1       2.235   2.503 -23.457  0.00  0.00    +0.063 C 
BRANCH  17  18
ATOM     18  CG  TYR A   1       3.149   3.408 -23.271  0.00  0.00    -0.045 A 
ATOM     19  CD2 TYR A   1       2.807   4.649 -23.091  0.00  0.00    +0.007 A 
ATOM     20  CE2 TYR A   1       3.720   5.556 -22.905  0.00  0.00    +0.045 A 
ATOM     21  CZ  TYR A   1       4.976   5.220 -22.900  0.00  0.00    +0.117 A 
ATOM     22  CE1 TYR A   1       5.319   3.979 -23.080  0.00  0.00    +0.045 A 
ATOM     23  CD1 TYR A   1       4.405   3.073 -23.265  0.00  0.00    +0.007 A 
BRANCH  21  24
ATOM     24  OH  TYR A   1       5.890   6.126 -22.714  0.00  0.00    -0.507 OA
ATOM     25  HH  TYR A   1       5.643   7.020 -22.583  0.00  0.00    +0.292 HD
ENDBRANCH  21  24
ENDBRANCH  17  18
ENDBRANCH   1  17
TORSDOF 8
ENDMDL
MODEL 4
REMARK VINA RESULT:    -8.327      1.897      2.626
REMARK INTER + INTRA:         -12.070
REMARK INTER:                 -11.613
REMARK INTRA:                  -0.456
REMARK UNBOUND:                -0.092
REMARK  Name = ZINC000000155939
REMARK  8 active torsions:
REMARK  status: ('A' for Active; 'I' for Inactive)
REMARK    1  A    between atoms: C_2  and  O_16
REMARK    2  A    between atoms: N_3  and  CA_4
REMARK    3  A    between atoms: CA_4  and  CB_5
REMARK    4  A    between atoms: CA_4  and  C_13
REMARK    5  A    between atoms: CB_5  and  CG_6
REMARK    6  A    between atoms: CZ_9  and  OH_10
REMARK    7  A    between atoms: O_16  and  C_17
REMARK    8  A    between atoms: C_17  and  C_18
REMARK                            x       y       z     vdW  Elec       q    Type
REMARK                         _______ _______ _______ _____ _____    ______ ____
ROOT
ATOM      1  CA  TYR A   1       1.757   2.506 -23.684  0.00  0.00    +0.126 C 
ENDROOT
BRANCH   1   4
ATOM      2  O   UNK A   0       0.175   0.850 -22.454  0.00  0.00    -0.226 OA
ATOM      3  C   UNK A   0      -0.195   2.082 -22.645  0.00  0.00    +0.401 C 
ATOM      4  N   TYR A   1       0.597   2.910 -23.259  0.00  0.00    -0.273 N 
ATOM      5  H   TYR A   1       0.317   3.843 -23.403  0.00  0.00    +0.153 HD
BRANCH   3   6
ATOM      6  O   UNK A   0      -1.355   2.486 -22.220  0.00  0.00    -0.446 OA
BRANCH   6   7
ATOM      7  C   UNK A   0      -1.840   3.619 -22.633  0.00  0.00    +0.269 C 
BRANCH   7   8
ATOM      8  C   UNK A   0      -3.082   3.697 -23.009  0.00  0.00    -0.010 A 
ATOM      9  C   UNK A   0      -3.375   4.101 -24.209  0.00  0.00    +0.007 A 
ATOM     10  C   UNK A   0      -4.617   4.178 -24.584  0.00  0.00    +0.000 A 
ATOM     11  C   UNK A   0      -5.567   3.853 -23.759  0.00  0.00    +0.000 A 
ATOM     12  C   UNK A   0      -5.275   3.449 -22.558  0.00  0.00    +0.000 A 
ATOM     13  C   UNK A   0      -4.032   3.371 -22.183  0.00  0.00    +0.007 A 
ENDBRANCH   7   8
ENDBRANCH   6   7
ENDBRANCH   3   6
ENDBRANCH   1   4
BRANCH   1  14
ATOM     14  C   TYR A   1       1.919   2.197 -24.936  0.00  0.00    +0.062 C 
ATOM     15  OXT TYR A   1       1.597   3.048 -25.864  0.00  0.00    -0.548 OA
ATOM     16  O   TYR A   1       2.404   1.035 -25.261  0.00  0.00    -0.548 OA
ENDBRANCH   1  14
BRANCH   1  17
ATOM     17  CB  TYR A   1       2.756   2.412 -22.856  0.00  0.00    +0.063 C 
BRANCH  17  18
ATOM     18  CG  TYR A   1       3.783   3.197 -22.985  0.00  0.00    -0.045 A 
ATOM     19  CD2 TYR A   1       4.956   2.697 -23.236  0.00  0.00    +0.007 A 
ATOM     20  CE2 TYR A   1       5.985   3.482 -23.366  0.00  0.00    +0.045 A 
ATOM     21  CZ  TYR A   1       5.839   4.768 -23.243  0.00  0.00    +0.117 A 
ATOM     22  CE1 TYR A   1       4.666   5.269 -22.992  0.00  0.00    +0.045 A 
ATOM     23  CD1 TYR A   1       3.637   4.483 -22.863  0.00  0.00    +0.007 A 
BRANCH  21  24
ATOM     24  OH  TYR A   1       6.867   5.554 -23.372  0.00  0.00    -0.507 OA
ATOM     25  HH  TYR A   1       7.732   5.194 -23.393  0.00  0.00    +0.292 HD
ENDBRANCH  21  24
ENDBRANCH  17  18
ENDBRANCH   1  17
TORSDOF 8
ENDMDL
MODEL 5
REMARK VINA RESULT:    -7.974      1.812      7.449
REMARK INTER + INTRA:         -11.563
REMARK INTER:                 -11.402
REMARK INTRA:                  -0.161
REMARK UNBOUND:                -0.092
REMARK  Name = ZINC000000155939
REMARK  8 active torsions:
REMARK  status: ('A' for Active; 'I' for Inactive)
REMARK    1  A    between atoms: C_2  and  O_16
REMARK    2  A    between atoms: N_3  and  CA_4
REMARK    3  A    between atoms: CA_4  and  CB_5
REMARK    4  A    between atoms: CA_4  and  C_13
REMARK    5  A    between atoms: CB_5  and  CG_6
REMARK    6  A    between atoms: CZ_9  and  OH_10
REMARK    7  A    between atoms: O_16  and  C_17
REMARK    8  A    between atoms: C_17  and  C_18
REMARK                            x       y       z     vdW  Elec       q    Type
REMARK                         _______ _______ _______ _____ _____    ______ ____
ROOT
ATOM      1  CA  TYR A   1      -0.449   3.396 -23.111  0.00  0.00    +0.126 C 
ENDROOT
BRANCH   1   4
ATOM      2  O   UNK A   0       1.333   1.962 -24.347  0.00  0.00    -0.226 OA
ATOM      3  C   UNK A   0       1.243   1.912 -23.050  0.00  0.00    +0.401 C 
ATOM      4  N   TYR A   1       0.351   2.629 -22.433  0.00  0.00    -0.273 N 
ATOM      5  H   TYR A   1       0.284   2.591 -21.451  0.00  0.00    +0.153 HD
BRANCH   3   6
ATOM      6  O   UNK A   0       2.044   1.146 -22.372  0.00  0.00    -0.446 OA
BRANCH   6   7
ATOM      7  C   UNK A   0       3.253   0.928 -22.798  0.00  0.00    +0.269 C 
BRANCH   7   8
ATOM      8  C   UNK A   0       4.211   1.748 -22.486  0.00  0.00    -0.010 A 
ATOM      9  C   UNK A   0       4.675   1.775 -21.272  0.00  0.00    +0.007 A 
ATOM     10  C   UNK A   0       5.634   2.595 -20.960  0.00  0.00    +0.000 A 
ATOM     11  C   UNK A   0       6.128   3.390 -21.862  0.00  0.00    +0.000 A 
ATOM     12  C   UNK A   0       5.665   3.364 -23.076  0.00  0.00    +0.000 A 
ATOM     13  C   UNK A   0       4.706   2.543 -23.388  0.00  0.00    +0.007 A 
ENDBRANCH   7   8
ENDBRANCH   6   7
ENDBRANCH   3   6
ENDBRANCH   1   4
BRANCH   1  14
ATOM     14  C   TYR A   1      -0.257   4.681 -23.130  0.00  0.00    +0.062 C 
ATOM     15  OXT TYR A   1      -0.914   5.449 -22.311  0.00  0.00    -0.548 OA
ATOM     16  O   TYR A   1       0.591   5.200 -23.967  0.00  0.00    -0.548 OA
ENDBRANCH   1  14
BRANCH   1  17
ATOM     17  CB  TYR A   1      -1.443   2.877 -23.771  0.00  0.00    +0.063 C 
BRANCH  17  18
ATOM     18  CG  TYR A   1      -2.660   3.038 -23.345  0.00  0.00    -0.045 A 
ATOM     19  CD2 TYR A   1      -3.546   3.604 -24.109  0.00  0.00    +0.007 A 
ATOM     20  CE2 TYR A   1      -4.764   3.765 -23.684  0.00  0.00    +0.045 A 
ATOM     21  CZ  TYR A   1      -5.096   3.358 -22.495  0.00  0.00    +0.117 A 
ATOM     22  CE1 TYR A   1      -4.210   2.792 -21.730  0.00  0.00    +0.045 A 
ATOM     23  CD1 TYR A   1      -2.991   2.631 -22.156  0.00  0.00    +0.007 A 
BRANCH  21  24
ATOM     24  OH  TYR A   1      -6.314   3.519 -22.069  0.00  0.00    -0.507 OA
ATOM     25  HH  TYR A   1      -6.806   4.272 -22.329  0.00  0.00    +0.292 HD
ENDBRANCH  21  24
ENDBRANCH  17  18
ENDBRANCH   1  17
TORSDOF 8
ENDMDL
MODEL 6
REMARK VINA RESULT:    -7.531      2.831      7.922
REMARK INTER + INTRA:         -10.925
REMARK INTER:                 -10.471
REMARK INTRA:                  -0.454
REMARK UNBOUND:                -0.092
REMARK  Name = ZINC000000155939
REMARK  8 active torsions:
REMARK  status: ('A' for Active; 'I' for Inactive)
REMARK    1  A    between atoms: C_2  and  O_16
REMARK    2  A    between atoms: N_3  and  CA_4
REMARK    3  A    between atoms: CA_4  and  CB_5
REMARK    4  A    between atoms: CA_4  and  C_13
REMARK    5  A    between atoms: CB_5  and  CG_6
REMARK    6  A    between atoms: CZ_9  and  OH_10
REMARK    7  A    between atoms: O_16  and  C_17
REMARK    8  A    between atoms: C_17  and  C_18
REMARK                            x       y       z     vdW  Elec       q    Type
REMARK                         _______ _______ _______ _____ _____    ______ ____
ROOT
ATOM      1  CA  TYR A   1       2.090   2.150 -22.528  0.00  0.00    +0.126 C 
ENDROOT
BRANCH   1   4
ATOM      2  O   UNK A   0       4.080   2.859 -24.044  0.00  0.00    -0.226 OA
ATOM      3  C   UNK A   0       3.737   3.600 -23.032  0.00  0.00    +0.401 C 
ATOM      4  N   TYR A   1       2.742   3.245 -22.275  0.00  0.00    -0.273 N 
ATOM      5  H   TYR A   1       2.482   3.807 -21.509  0.00  0.00    +0.153 HD
BRANCH   3   6
ATOM      6  O   UNK A   0       4.389   4.696 -22.778  0.00  0.00    -0.446 OA
BRANCH   6   7
ATOM      7  C   UNK A   0       5.678   4.737 -22.937  0.00  0.00    +0.269 C 
BRANCH   7   8
ATOM      8  C   UNK A   0       6.436   5.211 -21.993  0.00  0.00    -0.010 A 
ATOM      9  C   UNK A   0       7.191   4.410 -21.300  0.00  0.00    +0.007 A 
ATOM     10  C   UNK A   0       7.948   4.885 -20.357  0.00  0.00    +0.000 A 
ATOM     11  C   UNK A   0       7.950   6.160 -20.105  0.00  0.00    +0.000 A 
ATOM     12  C   UNK A   0       7.196   6.961 -20.797  0.00  0.00    +0.000 A 
ATOM     13  C   UNK A   0       6.438   6.486 -21.741  0.00  0.00    +0.007 A 
ENDBRANCH   7   8
ENDBRANCH   6   7
ENDBRANCH   3   6
ENDBRANCH   1   4
BRANCH   1  14
ATOM     14  C   TYR A   1       2.507   1.019 -22.043  0.00  0.00    +0.062 C 
ATOM     15  OXT TYR A   1       2.794   0.919 -20.779  0.00  0.00    -0.548 OA
ATOM     16  O   TYR A   1       2.637  -0.014 -22.822  0.00  0.00    -0.548 OA
ENDBRANCH   1  14
BRANCH   1  17
ATOM     17  CB  TYR A   1       1.021   2.186 -23.267  0.00  0.00    +0.063 C 
BRANCH  17  18
ATOM     18  CG  TYR A   1      -0.104   2.599 -22.765  0.00  0.00    -0.045 A 
ATOM     19  CD2 TYR A   1      -0.629   3.715 -23.175  0.00  0.00    +0.007 A 
ATOM     20  CE2 TYR A   1      -1.754   4.129 -22.673  0.00  0.00    +0.045 A 
ATOM     21  CZ  TYR A   1      -2.354   3.426 -21.759  0.00  0.00    +0.117 A 
ATOM     22  CE1 TYR A   1      -1.830   2.310 -21.347  0.00  0.00    +0.045 A 
ATOM     23  CD1 TYR A   1      -0.704   1.896 -21.851  0.00  0.00    +0.007 A 
BRANCH  21  24
ATOM     24  OH  TYR A   1      -3.480   3.839 -21.255  0.00  0.00    -0.507 OA
ATOM     25  HH  TYR A   1      -4.080   3.223 -20.882  0.00  0.00    +0.292 HD
ENDBRANCH  21  24
ENDBRANCH  17  18
ENDBRANCH   1  17
TORSDOF 8
ENDMDL
MODEL 7
REMARK VINA RESULT:    -7.396      2.371      7.998
REMARK INTER + INTRA:         -10.732
REMARK INTER:                 -10.860
REMARK INTRA:                   0.128
REMARK UNBOUND:                -0.092
REMARK  Name = ZINC000000155939
REMARK  8 active torsions:
REMARK  status: ('A' for Active; 'I' for Inactive)
REMARK    1  A    between atoms: C_2  and  O_16
REMARK    2  A    between atoms: N_3  and  CA_4
REMARK    3  A    between atoms: CA_4  and  CB_5
REMARK    4  A    between atoms: CA_4  and  C_13
REMARK    5  A    between atoms: CB_5  and  CG_6
REMARK    6  A    between atoms: CZ_9  and  OH_10
REMARK    7  A    between atoms: O_16  and  C_17
REMARK    8  A    between atoms: C_17  and  C_18
REMARK                            x       y       z     vdW  Elec       q    Type
REMARK                         _______ _______ _______ _____ _____    ______ ____
ROOT
ATOM      1  CA  TYR A   1      -0.118   3.440 -22.875  0.00  0.00    +0.126 C 
ENDROOT
BRANCH   1   4
ATOM      2  O   UNK A   0       1.221   2.766 -24.999  0.00  0.00    -0.226 OA
ATOM      3  C   UNK A   0       1.845   3.232 -23.957  0.00  0.00    +0.401 C 
ATOM      4  N   TYR A   1       1.175   3.569 -22.895  0.00  0.00    -0.273 N 
ATOM      5  H   TYR A   1       1.648   3.922 -22.107  0.00  0.00    +0.153 HD
BRANCH   3   6
ATOM      6  O   UNK A   0       3.138   3.361 -23.978  0.00  0.00    -0.446 OA
BRANCH   6   7
ATOM      7  C   UNK A   0       3.714   4.263 -23.240  0.00  0.00    +0.269 C 
BRANCH   7   8
ATOM      8  C   UNK A   0       4.994   4.207 -23.022  0.00  0.00    -0.010 A 
ATOM      9  C   UNK A   0       5.644   5.279 -22.679  0.00  0.00    +0.007 A 
ATOM     10  C   UNK A   0       6.924   5.222 -22.462  0.00  0.00    +0.000 A 
ATOM     11  C   UNK A   0       7.555   4.092 -22.588  0.00  0.00    +0.000 A 
ATOM     12  C   UNK A   0       6.906   3.020 -22.932  0.00  0.00    +0.000 A 
ATOM     13  C   UNK A   0       5.625   3.077 -23.149  0.00  0.00    +0.007 A 
ENDBRANCH   7   8
ENDBRANCH   6   7
ENDBRANCH   3   6
ENDBRANCH   1   4
BRANCH   1  14
ATOM     14  C   TYR A   1      -0.657   2.376 -22.357  0.00  0.00    +0.062 C 
ATOM     15  OXT TYR A   1      -1.203   2.431 -21.179  0.00  0.00    -0.548 OA
ATOM     16  O   TYR A   1      -0.649   1.256 -23.018  0.00  0.00    -0.548 OA
ENDBRANCH   1  14
BRANCH   1  17
ATOM     17  CB  TYR A   1      -0.873   4.374 -23.371  0.00  0.00    +0.063 C 
BRANCH  17  18
ATOM     18  CG  TYR A   1      -1.898   4.061 -24.106  0.00  0.00    -0.045 A 
ATOM     19  CD2 TYR A   1      -1.725   3.705 -25.345  0.00  0.00    +0.007 A 
ATOM     20  CE2 TYR A   1      -2.750   3.391 -26.080  0.00  0.00    +0.045 A 
ATOM     21  CZ  TYR A   1      -3.948   3.433 -25.577  0.00  0.00    +0.117 A 
ATOM     22  CE1 TYR A   1      -4.121   3.789 -24.339  0.00  0.00    +0.045 A 
ATOM     23  CD1 TYR A   1      -3.095   4.103 -23.603  0.00  0.00    +0.007 A 
BRANCH  21  24
ATOM     24  OH  TYR A   1      -4.973   3.119 -26.312  0.00  0.00    -0.507 OA
ATOM     25  HH  TYR A   1      -5.834   3.121 -25.941  0.00  0.00    +0.292 HD
ENDBRANCH  21  24
ENDBRANCH  17  18
ENDBRANCH   1  17
TORSDOF 8
ENDMDL
MODEL 8
REMARK VINA RESULT:    -7.235      1.505      2.281
REMARK INTER + INTRA:         -10.499
REMARK INTER:                 -10.407
REMARK INTRA:                  -0.092
REMARK UNBOUND:                -0.092
REMARK  Name = ZINC000000155939
REMARK  8 active torsions:
REMARK  status: ('A' for Active; 'I' for Inactive)
REMARK    1  A    between atoms: C_2  and  O_16
REMARK    2  A    between atoms: N_3  and  CA_4
REMARK    3  A    between atoms: CA_4  and  CB_5
REMARK    4  A    between atoms: CA_4  and  C_13
REMARK    5  A    between atoms: CB_5  and  CG_6
REMARK    6  A    between atoms: CZ_9  and  OH_10
REMARK    7  A    between atoms: O_16  and  C_17
REMARK    8  A    between atoms: C_17  and  C_18
REMARK                            x       y       z     vdW  Elec       q    Type
REMARK                         _______ _______ _______ _____ _____    ______ ____
ROOT
ATOM      1  CA  TYR A   1       2.374   3.149 -23.187  0.00  0.00    +0.126 C 
ENDROOT
BRANCH   1   4
ATOM      2  O   UNK A   0       0.558   3.185 -25.047  0.00  0.00    -0.226 OA
ATOM      3  C   UNK A   0       0.206   3.173 -23.795  0.00  0.00    +0.401 C 
ATOM      4  N   TYR A   1       1.115   3.156 -22.865  0.00  0.00    -0.273 N 
ATOM      5  H   TYR A   1       0.848   3.147 -21.917  0.00  0.00    +0.153 HD
BRANCH   3   6
ATOM      6  O   UNK A   0      -1.053   3.180 -23.473  0.00  0.00    -0.446 OA
BRANCH   6   7
ATOM      7  C   UNK A   0      -1.938   2.708 -24.300  0.00  0.00    +0.269 C 
BRANCH   7   8
ATOM      8  C   UNK A   0      -3.172   3.113 -24.235  0.00  0.00    -0.010 A 
ATOM      9  C   UNK A   0      -3.813   3.426 -25.322  0.00  0.00    +0.007 A 
ATOM     10  C   UNK A   0      -5.046   3.831 -25.256  0.00  0.00    +0.000 A 
ATOM     11  C   UNK A   0      -5.638   3.923 -24.102  0.00  0.00    +0.000 A 
ATOM     12  C   UNK A   0      -4.998   3.611 -23.015  0.00  0.00    +0.000 A 
ATOM     13  C   UNK A   0      -3.764   3.206 -23.082  0.00  0.00    +0.007 A 
ENDBRANCH   7   8
ENDBRANCH   6   7
ENDBRANCH   3   6
ENDBRANCH   1   4
BRANCH   1  14
ATOM     14  C   TYR A   1       3.046   4.261 -23.200  0.00  0.00    +0.062 C 
ATOM     15  OXT TYR A   1       4.172   4.333 -23.847  0.00  0.00    -0.548 OA
ATOM     16  O   TYR A   1       2.594   5.303 -22.566  0.00  0.00    -0.548 OA
ENDBRANCH   1  14
BRANCH   1  17
ATOM     17  CB  TYR A   1       2.961   2.031 -23.494  0.00  0.00    +0.063 C 
BRANCH  17  18
ATOM     18  CG  TYR A   1       3.676   1.406 -22.607  0.00  0.00    -0.045 A 
ATOM     19  CD2 TYR A   1       4.963   1.306 -22.763  0.00  0.00    +0.007 A 
ATOM     20  CE2 TYR A   1       5.679   0.682 -21.876  0.00  0.00    +0.045 A 
ATOM     21  CZ  TYR A   1       5.108   0.157 -20.833  0.00  0.00    +0.117 A 
ATOM     22  CE1 TYR A   1       3.821   0.256 -20.677  0.00  0.00    +0.045 A 
ATOM     23  CD1 TYR A   1       3.105   0.881 -21.565  0.00  0.00    +0.007 A 
BRANCH  21  24
ATOM     24  OH  TYR A   1       5.823  -0.468 -19.945  0.00  0.00    -0.507 OA
ATOM     25  HH  TYR A   1       5.457  -1.190 -19.472  0.00  0.00    +0.292 HD
ENDBRANCH  21  24
ENDBRANCH  17  18
ENDBRANCH   1  17
TORSDOF 8
ENDMDL
MODEL 9
REMARK VINA RESULT:    -7.223      1.740      7.477
REMARK INTER + INTRA:         -10.482
REMARK INTER:                 -10.691
REMARK INTRA:                   0.210
REMARK UNBOUND:                -0.092
REMARK  Name = ZINC000000155939
REMARK  8 active torsions:
REMARK  status: ('A' for Active; 'I' for Inactive)
REMARK    1  A    between atoms: C_2  and  O_16
REMARK    2  A    between atoms: N_3  and  CA_4
REMARK    3  A    between atoms: CA_4  and  CB_5
REMARK    4  A    between atoms: CA_4  and  C_13
REMARK    5  A    between atoms: CB_5  and  CG_6
REMARK    6  A    between atoms: CZ_9  and  OH_10
REMARK    7  A    between atoms: O_16  and  C_17
REMARK    8  A    between atoms: C_17  and  C_18
REMARK                            x       y       z     vdW  Elec       q    Type
REMARK                         _______ _______ _______ _____ _____    ______ ____
ROOT
ATOM      1  CA  TYR A   1      -0.639   3.371 -23.734  0.00  0.00    +0.126 C 
ENDROOT
BRANCH   1   4
ATOM      2  O   UNK A   0       1.720   3.890 -22.771  0.00  0.00    -0.226 OA
ATOM      3  C   UNK A   0       1.256   2.675 -22.738  0.00  0.00    +0.401 C 
ATOM      4  N   TYR A   1       0.076   2.416 -23.219  0.00  0.00    -0.273 N 
ATOM      5  H   TYR A   1      -0.274   1.497 -23.193  0.00  0.00    +0.153 HD
BRANCH   3   6
ATOM      6  O   UNK A   0       1.972   1.720 -22.223  0.00  0.00    -0.446 OA
BRANCH   6   7
ATOM      7  C   UNK A   0       3.085   1.363 -22.791  0.00  0.00    +0.269 C 
BRANCH   7   8
ATOM      8  C   UNK A   0       4.195   1.968 -22.486  0.00  0.00    -0.010 A 
ATOM      9  C   UNK A   0       4.889   2.560 -23.412  0.00  0.00    +0.007 A 
ATOM     10  C   UNK A   0       5.998   3.165 -23.107  0.00  0.00    +0.000 A 
ATOM     11  C   UNK A   0       6.414   3.176 -21.875  0.00  0.00    +0.000 A 
ATOM     12  C   UNK A   0       5.720   2.584 -20.949  0.00  0.00    +0.000 A 
ATOM     13  C   UNK A   0       4.611   1.979 -21.255  0.00  0.00    +0.007 A 
ENDBRANCH   7   8
ENDBRANCH   6   7
ENDBRANCH   3   6
ENDBRANCH   1   4
BRANCH   1  14
ATOM     14  C   TYR A   1      -0.637   3.564 -25.019  0.00  0.00    +0.062 C 
ATOM     15  OXT TYR A   1       0.389   4.122 -25.591  0.00  0.00    -0.548 OA
ATOM     16  O   TYR A   1      -1.660   3.200 -25.734  0.00  0.00    -0.548 OA
ENDBRANCH   1  14
BRANCH   1  17
ATOM     17  CB  TYR A   1      -1.358   4.133 -22.963  0.00  0.00    +0.063 C 
BRANCH  17  18
ATOM     18  CG  TYR A   1      -2.547   3.754 -22.600  0.00  0.00    -0.045 A 
ATOM     19  CD2 TYR A   1      -2.724   3.190 -21.443  0.00  0.00    +0.007 A 
ATOM     20  CE2 TYR A   1      -3.913   2.811 -21.079  0.00  0.00    +0.045 A 
ATOM     21  CZ  TYR A   1      -4.925   2.996 -21.873  0.00  0.00    +0.117 A 
ATOM     22  CE1 TYR A   1      -4.749   3.560 -23.031  0.00  0.00    +0.045 A 
ATOM     23  CD1 TYR A   1      -3.559   3.940 -23.395  0.00  0.00    +0.007 A 
BRANCH  21  24
ATOM     24  OH  TYR A   1      -6.115   2.617 -21.510  0.00  0.00    -0.507 OA
ATOM     25  HH  TYR A   1      -6.783   2.491 -22.155  0.00  0.00    +0.292 HD
ENDBRANCH  21  24
ENDBRANCH  17  18
ENDBRANCH   1  17
TORSDOF 8
ENDMDL
