MODEL 1
REMARK VINA RESULT:    -9.793      0.000      0.000
REMARK INTER + INTRA:          -7.387
REMARK INTER:                 -11.497
REMARK INTRA:                   4.110
REMARK UNBOUND:                 4.124
REMARK  Name = COc1ccc2c3c1O[C@@H]1C(OC)(OC)CC[C@@H]4[C@H](C2)N(C)CC[C@]341         ZINC000096316412
REMARK  7 active torsions:
REMARK  status: ('A' for Active; 'I' for Inactive)
REMARK    1  A    between atoms: C_1  and  O_2
REMARK    2  A    between atoms: O_2  and  C_3
REMARK    3  A    between atoms: C_11  and  O_12
REMARK    4  A    between atoms: C_11  and  O_14
REMARK    5  A    between atoms: O_12  and  C_13
REMARK    6  A    between atoms: O_14  and  C_15
REMARK    7  A    between atoms: N_21  and  C_22
REMARK                            x       y       z     vdW  Elec       q    Type
REMARK                         _______ _______ _______ _____ _____    ______ ____
ROOT
ATOM      1  C   UNL     1       1.439   1.869 -22.043  0.00  0.00    +0.162 A 
ATOM      2  C   UNL     1       2.091   1.951 -23.128  0.00  0.00    +0.050 A 
ATOM      3  C   UNL     1       1.533   2.341 -24.179  0.00  0.00    +0.008 A 
ATOM      4  C   UNL     1       0.317   2.654 -24.159  0.00  0.00    -0.035 A 
ATOM      5  C   UNL     1      -0.354   2.581 -23.092  0.00  0.00    +0.012 A 
ATOM      6  C   UNL     1      -1.567   2.895 -23.078  0.00  0.00    +0.054 C 
ATOM      7  C   UNL     1      -2.951   3.224 -22.937  0.00  0.00    +0.067 C 
ATOM      8  C   UNL     1      -3.610   3.668 -24.107  0.00  0.00    +0.132 C 
ATOM      9  N   UNL     1      -2.850   3.747 -25.298  0.00  0.00    +0.236 N 
ATOM     10  H   UNL     1      -3.275   4.061 -26.170  0.00  0.00    +0.203 HD
ATOM     11  C   UNL     1      -3.358   4.131 -26.378  0.00  0.00    +0.190 C 
ATOM     12  C   UNL     1      -1.474   3.367 -25.211  0.00  0.00    +0.072 C 
ATOM     13  C   UNL     1      -2.130   3.286 -24.128  0.00  0.00    +0.053 C 
ATOM     14  C   UNL     1      -3.359   3.604 -24.112  0.00  0.00    +0.015 C 
ATOM     15  C   UNL     1      -4.010   3.525 -23.042  0.00  0.00    +0.069 C 
ATOM     16  C   UNL     1      -3.452   3.131 -21.976  0.00  0.00    +0.208 C 
ATOM     17  C   UNL     1      -2.236   2.818 -21.995  0.00  0.00    +0.244 C 
ATOM     18  O   UNL     1      -1.044   2.322 -21.202  0.00  0.00    -0.479 OA
ATOM     19  C   UNL     1      -0.260   3.054 -25.229  0.00  0.00    +0.090 C 
ATOM     20  C   UNL     1       0.208   2.187 -22.027  0.00  0.00    +0.167 A 
ENDROOT
BRANCH   1  22
ATOM     21  C   UNL     1       3.204   1.116 -21.022  0.00  0.00    +0.277 C 
ATOM     22  O   UNL     1       2.002   1.477 -20.993  0.00  0.00    -0.491 OA
ENDBRANCH   1  22
BRANCH  16  23
ATOM     23  O   UNL     1      -4.612   3.334 -21.546  0.00  0.00    -0.349 OA
ATOM     24  C   UNL     1      -5.373   2.365 -21.310  0.00  0.00    +0.197 C 
ENDBRANCH  16  23
BRANCH  16  25
ATOM     25  O   UNL     1      -3.294   2.810 -20.774  0.00  0.00    -0.349 OA
ATOM     26  C   UNL     1      -3.289   3.693 -19.883  0.00  0.00    +0.197 C 
ENDBRANCH  16  25
TORSDOF 3
ENDMDL
MODEL 2
REMARK VINA RESULT:    -9.483      2.018      3.429
REMARK INTER + INTRA:          -7.022
REMARK INTER:                 -11.194
REMARK INTRA:                   4.172
REMARK UNBOUND:                 4.124
REMARK  Name = COc1ccc2c3c1O[C@@H]1C(OC)(OC)CC[C@@H]4[C@H](C2)N(C)CC[C@]341         ZINC000096316412
REMARK  7 active torsions:
REMARK  status: ('A' for Active; 'I' for Inactive)
REMARK    1  A    between atoms: C_1  and  O_2
REMARK    2  A    between atoms: O_2  and  C_3
REMARK    3  A    between atoms: C_11  and  O_12
REMARK    4  A    between atoms: C_11  and  O_14
REMARK    5  A    between atoms: O_12  and  C_13
REMARK    6  A    between atoms: O_14  and  C_15
REMARK    7  A    between atoms: N_21  and  C_22
REMARK                            x       y       z     vdW  Elec       q    Type
REMARK                         _______ _______ _______ _____ _____    ______ ____
ROOT
ATOM      1  C   UNL     1       1.663   2.308 -23.762  0.00  0.00    +0.162 A 
ATOM      2  C   UNL     1       1.974   1.848 -22.622  0.00  0.00    +0.050 A 
ATOM      3  C   UNL     1       1.102   1.701 -21.734  0.00  0.00    +0.008 A 
ATOM      4  C   UNL     1      -0.090   2.012 -21.976  0.00  0.00    -0.035 A 
ATOM      5  C   UNL     1      -0.426   2.472 -23.103  0.00  0.00    +0.012 A 
ATOM      6  C   UNL     1      -1.617   2.781 -23.338  0.00  0.00    +0.054 C 
ATOM      7  C   UNL     1      -2.938   3.168 -23.724  0.00  0.00    +0.067 C 
ATOM      8  C   UNL     1      -3.946   3.014 -22.743  0.00  0.00    +0.132 C 
ATOM      9  N   UNL     1      -3.561   2.498 -21.483  0.00  0.00    +0.236 N 
ATOM     10  H   UNL     1      -4.247   2.367 -20.740  0.00  0.00    +0.203 HD
ATOM     11  C   UNL     1      -4.392   2.331 -20.559  0.00  0.00    +0.190 C 
ATOM     12  C   UNL     1      -2.178   2.176 -21.313  0.00  0.00    +0.072 C 
ATOM     13  C   UNL     1      -2.493   2.636 -22.453  0.00  0.00    +0.053 C 
ATOM     14  C   UNL     1      -3.699   2.950 -22.692  0.00  0.00    +0.015 C 
ATOM     15  C   UNL     1      -4.014   3.405 -23.818  0.00  0.00    +0.069 C 
ATOM     16  C   UNL     1      -3.137   3.556 -24.720  0.00  0.00    +0.208 C 
ATOM     17  C   UNL     1      -1.945   3.245 -24.480  0.00  0.00    +0.244 C 
ATOM     18  O   UNL     1      -0.527   3.161 -25.008  0.00  0.00    -0.479 OA
ATOM     19  C   UNL     1      -0.987   1.865 -21.074  0.00  0.00    +0.090 C 
ATOM     20  C   UNL     1       0.454   2.621 -24.002  0.00  0.00    +0.167 A 
ENDROOT
BRANCH   1  22
ATOM     21  C   UNL     1       3.733   2.146 -24.406  0.00  0.00    +0.277 C 
ATOM     22  O   UNL     1       2.539   2.452 -24.647  0.00  0.00    -0.491 OA
ENDBRANCH   1  22
BRANCH  16  23
ATOM     23  O   UNL     1      -4.150   3.965 -25.337  0.00  0.00    -0.349 OA
ATOM     24  C   UNL     1      -4.409   5.192 -25.374  0.00  0.00    +0.197 C 
ENDBRANCH  16  23
BRANCH  16  25
ATOM     25  O   UNL     1      -2.614   3.844 -25.823  0.00  0.00    -0.349 OA
ATOM     26  C   UNL     1      -3.110   3.405 -26.888  0.00  0.00    +0.197 C 
ENDBRANCH  16  25
TORSDOF 3
ENDMDL
MODEL 3
REMARK VINA RESULT:    -8.939      2.220      5.796
REMARK INTER + INTRA:          -6.383
REMARK INTER:                 -10.430
REMARK INTRA:                   4.047
REMARK UNBOUND:                 4.124
REMARK  Name = COc1ccc2c3c1O[C@@H]1C(OC)(OC)CC[C@@H]4[C@H](C2)N(C)CC[C@]341         ZINC000096316412
REMARK  7 active torsions:
REMARK  status: ('A' for Active; 'I' for Inactive)
REMARK    1  A    between atoms: C_1  and  O_2
REMARK    2  A    between atoms: O_2  and  C_3
REMARK    3  A    between atoms: C_11  and  O_12
REMARK    4  A    between atoms: C_11  and  O_14
REMARK    5  A    between atoms: O_12  and  C_13
REMARK    6  A    between atoms: O_14  and  C_15
REMARK    7  A    between atoms: N_21  and  C_22
REMARK                            x       y       z     vdW  Elec       q    Type
REMARK                         _______ _______ _______ _____ _____    ______ ____
ROOT
ATOM      1  C   UNL     1      -4.161   3.752 -23.952  0.00  0.00    +0.162 A 
ATOM      2  C   UNL     1      -4.750   3.505 -22.856  0.00  0.00    +0.050 A 
ATOM      3  C   UNL     1      -4.114   3.038 -21.883  0.00  0.00    +0.008 A 
ATOM      4  C   UNL     1      -2.884   2.811 -21.994  0.00  0.00    -0.035 A 
ATOM      5  C   UNL     1      -2.275   3.048 -23.074  0.00  0.00    +0.012 A 
ATOM      6  C   UNL     1      -1.048   2.820 -23.179  0.00  0.00    +0.054 C 
ATOM      7  C   UNL     1       0.345   2.602 -23.419  0.00  0.00    +0.067 C 
ATOM      8  C   UNL     1       1.090   2.075 -22.339  0.00  0.00    +0.132 C 
ATOM      9  N   UNL     1       0.400   1.813 -21.132  0.00  0.00    +0.236 N 
ATOM     10  H   UNL     1       0.888   1.432 -20.322  0.00  0.00    +0.203 HD
ATOM     11  C   UNL     1       0.986   1.345 -20.127  0.00  0.00    +0.190 C 
ATOM     12  C   UNL     1      -1.000   2.107 -21.113  0.00  0.00    +0.072 C 
ATOM     13  C   UNL     1      -0.408   2.352 -22.208  0.00  0.00    +0.053 C 
ATOM     14  C   UNL     1       0.835   2.122 -22.315  0.00  0.00    +0.015 C 
ATOM     15  C   UNL     1       1.424   2.363 -23.397  0.00  0.00    +0.069 C 
ATOM     16  C   UNL     1       0.787   2.836 -24.385  0.00  0.00    +0.208 C 
ATOM     17  C   UNL     1      -0.443   3.063 -24.275  0.00  0.00    +0.244 C 
ATOM     18  O   UNL     1      -1.703   3.563 -24.950  0.00  0.00    -0.479 OA
ATOM     19  C   UNL     1      -2.229   2.333 -21.004  0.00  0.00    +0.090 C 
ATOM     20  C   UNL     1      -2.916   3.521 -24.060  0.00  0.00    +0.167 A 
ENDROOT
BRANCH   1  22
ATOM     21  C   UNL     1      -5.082   3.487 -25.904  0.00  0.00    +0.277 C 
ATOM     22  O   UNL     1      -4.802   4.220 -24.923  0.00  0.00    -0.491 OA
ENDBRANCH   1  22
BRANCH  16  23
ATOM     23  O   UNL     1       1.934   2.761 -24.887  0.00  0.00    -0.349 OA
ATOM     24  C   UNL     1       2.234   1.791 -25.624  0.00  0.00    +0.197 C 
ENDBRANCH  16  23
BRANCH  16  25
ATOM     25  O   UNL     1       0.547   3.278 -25.533  0.00  0.00    -0.349 OA
ATOM     26  C   UNL     1       1.084   4.344 -25.921  0.00  0.00    +0.197 C 
ENDBRANCH  16  25
TORSDOF 3
ENDMDL
MODEL 4
REMARK VINA RESULT:    -8.756      2.093      5.410
REMARK INTER + INTRA:          -6.168
REMARK INTER:                 -10.201
REMARK INTRA:                   4.032
REMARK UNBOUND:                 4.124
REMARK  Name = COc1ccc2c3c1O[C@@H]1C(OC)(OC)CC[C@@H]4[C@H](C2)N(C)CC[C@]341         ZINC000096316412
REMARK  7 active torsions:
REMARK  status: ('A' for Active; 'I' for Inactive)
REMARK    1  A    between atoms: C_1  and  O_2
REMARK    2  A    between atoms: O_2  and  C_3
REMARK    3  A    between atoms: C_11  and  O_12
REMARK    4  A    between atoms: C_11  and  O_14
REMARK    5  A    between atoms: O_12  and  C_13
REMARK    6  A    between atoms: O_14  and  C_15
REMARK    7  A    between atoms: N_21  and  C_22
REMARK                            x       y       z     vdW  Elec       q    Type
REMARK                         _______ _______ _______ _____ _____    ______ ____
ROOT
ATOM      1  C   UNL     1      -4.201   3.093 -26.128  0.00  0.00    +0.162 A 
ATOM      2  C   UNL     1      -5.348   3.464 -25.734  0.00  0.00    +0.050 A 
ATOM      3  C   UNL     1      -5.568   3.668 -24.517  0.00  0.00    +0.008 A 
ATOM      4  C   UNL     1      -4.646   3.504 -23.682  0.00  0.00    -0.035 A 
ATOM      5  C   UNL     1      -3.495   3.135 -24.049  0.00  0.00    +0.012 A 
ATOM      6  C   UNL     1      -2.579   2.973 -23.210  0.00  0.00    +0.054 C 
ATOM      7  C   UNL     1      -1.457   2.755 -22.351  0.00  0.00    +0.067 C 
ATOM      8  C   UNL     1      -1.674   2.977 -20.971  0.00  0.00    +0.132 C 
ATOM      9  N   UNL     1      -2.966   3.390 -20.569  0.00  0.00    +0.236 N 
ATOM     10  H   UNL     1      -3.178   3.564 -19.586  0.00  0.00    +0.203 HD
ATOM     11  C   UNL     1      -3.242   3.608 -19.365  0.00  0.00    +0.190 C 
ATOM     12  C   UNL     1      -3.943   3.546 -21.601  0.00  0.00    +0.072 C 
ATOM     13  C   UNL     1      -2.795   3.176 -21.992  0.00  0.00    +0.053 C 
ATOM     14  C   UNL     1      -1.865   3.011 -21.143  0.00  0.00    +0.015 C 
ATOM     15  C   UNL     1      -0.728   2.645 -21.527  0.00  0.00    +0.069 C 
ATOM     16  C   UNL     1      -0.498   2.437 -22.755  0.00  0.00    +0.208 C 
ATOM     17  C   UNL     1      -1.420   2.601 -23.592  0.00  0.00    +0.244 C 
ATOM     18  O   UNL     1      -1.832   2.548 -25.049  0.00  0.00    -0.479 OA
ATOM     19  C   UNL     1      -4.864   3.710 -22.437  0.00  0.00    +0.090 C 
ATOM     20  C   UNL     1      -3.270   2.929 -25.278  0.00  0.00    +0.167 A 
ENDROOT
BRANCH   1  22
ATOM     21  C   UNL     1      -3.272   3.692 -28.000  0.00  0.00    +0.277 C 
ATOM     22  O   UNL     1      -3.985   2.891 -27.347  0.00  0.00    -0.491 OA
ENDBRANCH   1  22
BRANCH  16  23
ATOM     23  O   UNL     1       0.632   2.173 -22.280  0.00  0.00    -0.349 OA
ATOM     24  C   UNL     1       0.993   0.979 -22.146  0.00  0.00    +0.197 C 
ENDBRANCH  16  23
BRANCH  16  25
ATOM     25  O   UNL     1       0.114   2.142 -23.809  0.00  0.00    -0.349 OA
ATOM     26  C   UNL     1       1.103   2.822 -24.173  0.00  0.00    +0.197 C 
ENDBRANCH  16  25
TORSDOF 3
ENDMDL
MODEL 5
REMARK VINA RESULT:    -8.640      1.530      4.687
REMARK INTER + INTRA:          -6.031
REMARK INTER:                 -10.173
REMARK INTRA:                   4.141
REMARK UNBOUND:                 4.124
REMARK  Name = COc1ccc2c3c1O[C@@H]1C(OC)(OC)CC[C@@H]4[C@H](C2)N(C)CC[C@]341         ZINC000096316412
REMARK  7 active torsions:
REMARK  status: ('A' for Active; 'I' for Inactive)
REMARK    1  A    between atoms: C_1  and  O_2
REMARK    2  A    between atoms: O_2  and  C_3
REMARK    3  A    between atoms: C_11  and  O_12
REMARK    4  A    between atoms: C_11  and  O_14
REMARK    5  A    between atoms: O_12  and  C_13
REMARK    6  A    between atoms: O_14  and  C_15
REMARK    7  A    between atoms: N_21  and  C_22
REMARK                            x       y       z     vdW  Elec       q    Type
REMARK                         _______ _______ _______ _____ _____    ______ ____
ROOT
ATOM      1  C   UNL     1      -4.253   3.169 -21.134  0.00  0.00    +0.162 A 
ATOM      2  C   UNL     1      -5.466   3.264 -21.490  0.00  0.00    +0.050 A 
ATOM      3  C   UNL     1      -5.767   3.394 -22.700  0.00  0.00    +0.008 A 
ATOM      4  C   UNL     1      -4.859   3.429 -23.566  0.00  0.00    -0.035 A 
ATOM      5  C   UNL     1      -3.643   3.336 -23.237  0.00  0.00    +0.012 A 
ATOM      6  C   UNL     1      -2.742   3.372 -24.107  0.00  0.00    +0.054 C 
ATOM      7  C   UNL     1      -1.629   3.400 -25.003  0.00  0.00    +0.067 C 
ATOM      8  C   UNL     1      -1.935   3.545 -26.376  0.00  0.00    +0.132 C 
ATOM      9  N   UNL     1      -3.300   3.649 -26.736  0.00  0.00    +0.236 N 
ATOM     10  H   UNL     1      -3.577   3.755 -27.711  0.00  0.00    +0.203 HD
ATOM     11  C   UNL     1      -3.658   3.780 -27.930  0.00  0.00    +0.190 C 
ATOM     12  C   UNL     1      -4.253   3.597 -25.671  0.00  0.00    +0.072 C 
ATOM     13  C   UNL     1      -3.038   3.501 -25.318  0.00  0.00    +0.053 C 
ATOM     14  C   UNL     1      -2.124   3.538 -26.198  0.00  0.00    +0.015 C 
ATOM     15  C   UNL     1      -0.921   3.444 -25.852  0.00  0.00    +0.069 C 
ATOM     16  C   UNL     1      -0.611   3.312 -24.631  0.00  0.00    +0.208 C 
ATOM     17  C   UNL     1      -1.517   3.277 -23.763  0.00  0.00    +0.244 C 
ATOM     18  O   UNL     1      -1.858   3.156 -22.292  0.00  0.00    -0.479 OA
ATOM     19  C   UNL     1      -5.159   3.561 -24.804  0.00  0.00    +0.090 C 
ATOM     20  C   UNL     1      -3.337   3.205 -22.015  0.00  0.00    +0.167 A 
ENDROOT
BRANCH   1  22
ATOM     21  C   UNL     1      -3.136   3.826 -19.388  0.00  0.00    +0.277 C 
ATOM     22  O   UNL     1      -3.957   3.039 -19.923  0.00  0.00    -0.491 OA
ENDBRANCH   1  22
BRANCH  16  23
ATOM     23  O   UNL     1       0.534   3.302 -25.144  0.00  0.00    -0.349 OA
ATOM     24  C   UNL     1       1.265   4.319 -25.068  0.00  0.00    +0.197 C 
ENDBRANCH  16  23
BRANCH  16  25
ATOM     25  O   UNL     1       0.087   3.179 -23.597  0.00  0.00    -0.349 OA
ATOM     26  C   UNL     1       0.809   2.164 -23.453  0.00  0.00    +0.197 C 
ENDBRANCH  16  25
TORSDOF 3
ENDMDL
MODEL 6
REMARK VINA RESULT:    -8.540      1.232      4.830
REMARK INTER + INTRA:          -5.914
REMARK INTER:                 -10.200
REMARK INTRA:                   4.286
REMARK UNBOUND:                 4.124
REMARK  Name = COc1ccc2c3c1O[C@@H]1C(OC)(OC)CC[C@@H]4[C@H](C2)N(C)CC[C@]341         ZINC000096316412
REMARK  7 active torsions:
REMARK  status: ('A' for Active; 'I' for Inactive)
REMARK    1  A    between atoms: C_1  and  O_2
REMARK    2  A    between atoms: O_2  and  C_3
REMARK    3  A    between atoms: C_11  and  O_12
REMARK    4  A    between atoms: C_11  and  O_14
REMARK    5  A    between atoms: O_12  and  C_13
REMARK    6  A    between atoms: O_14  and  C_15
REMARK    7  A    between atoms: N_21  and  C_22
REMARK                            x       y       z     vdW  Elec       q    Type
REMARK                         _______ _______ _______ _____ _____    ______ ____
ROOT
ATOM      1  C   UNL     1      -4.008   2.735 -21.951  0.00  0.00    +0.162 A 
ATOM      2  C   UNL     1      -4.565   3.408 -22.870  0.00  0.00    +0.050 A 
ATOM      3  C   UNL     1      -3.891   3.863 -23.824  0.00  0.00    +0.008 A 
ATOM      4  C   UNL     1      -2.654   3.651 -23.869  0.00  0.00    -0.035 A 
ATOM      5  C   UNL     1      -2.077   2.984 -22.965  0.00  0.00    +0.012 A 
ATOM      6  C   UNL     1      -0.843   2.776 -23.016  0.00  0.00    +0.054 C 
ATOM      7  C   UNL     1       0.554   2.474 -22.963  0.00  0.00    +0.067 C 
ATOM      8  C   UNL     1       1.342   2.973 -24.026  0.00  0.00    +0.132 C 
ATOM      9  N   UNL     1       0.686   3.719 -25.034  0.00  0.00    +0.236 N 
ATOM     10  H   UNL     1       1.206   4.103 -25.823  0.00  0.00    +0.203 HD
ATOM     11  C   UNL     1       1.311   4.198 -26.010  0.00  0.00    +0.190 C 
ATOM     12  C   UNL     1      -0.724   3.902 -24.886  0.00  0.00    +0.072 C 
ATOM     13  C   UNL     1      -0.164   3.229 -23.968  0.00  0.00    +0.053 C 
ATOM     14  C   UNL     1       1.086   3.018 -24.017  0.00  0.00    +0.015 C 
ATOM     15  C   UNL     1       1.643   2.353 -23.111  0.00  0.00    +0.069 C 
ATOM     16  C   UNL     1       0.968   1.890 -22.144  0.00  0.00    +0.208 C 
ATOM     17  C   UNL     1      -0.269   2.101 -22.098  0.00  0.00    +0.244 C 
ATOM     18  O   UNL     1      -1.563   1.886 -21.339  0.00  0.00    -0.479 OA
ATOM     19  C   UNL     1      -1.960   4.113 -24.840  0.00  0.00    +0.090 C 
ATOM     20  C   UNL     1      -2.756   2.523 -22.000  0.00  0.00    +0.167 A 
ENDROOT
BRANCH   1  22
ATOM     21  C   UNL     1      -5.941   2.269 -21.070  0.00  0.00    +0.277 C 
ATOM     22  O   UNL     1      -4.687   2.282 -20.998  0.00  0.00    -0.491 OA
ENDBRANCH   1  22
BRANCH  16  23
ATOM     23  O   UNL     1       2.108   1.474 -21.826  0.00  0.00    -0.349 OA
ATOM     24  C   UNL     1       2.513   0.366 -22.252  0.00  0.00    +0.197 C 
ENDBRANCH  16  23
BRANCH  16  25
ATOM     25  O   UNL     1       0.687   1.291 -21.079  0.00  0.00    -0.349 OA
ATOM     26  C   UNL     1       1.385   1.474 -20.052  0.00  0.00    +0.197 C 
ENDBRANCH  16  25
TORSDOF 3
ENDMDL
MODEL 7
REMARK VINA RESULT:    -8.055      2.594      6.085
REMARK INTER + INTRA:          -5.344
REMARK INTER:                  -9.665
REMARK INTRA:                   4.322
REMARK UNBOUND:                 4.124
REMARK  Name = COc1ccc2c3c1O[C@@H]1C(OC)(OC)CC[C@@H]4[C@H](C2)N(C)CC[C@]341         ZINC000096316412
REMARK  7 active torsions:
REMARK  status: ('A' for Active; 'I' for Inactive)
REMARK    1  A    between atoms: C_1  and  O_2
REMARK    2  A    between atoms: O_2  and  C_3
REMARK    3  A    between atoms: C_11  and  O_12
REMARK    4  A    between atoms: C_11  and  O_14
REMARK    5  A    between atoms: O_12  and  C_13
REMARK    6  A    between atoms: O_14  and  C_15
REMARK    7  A    between atoms: N_21  and  C_22
REMARK                            x       y       z     vdW  Elec       q    Type
REMARK                         _______ _______ _______ _____ _____    ______ ____
ROOT
ATOM      1  C   UNL     1      -1.467   3.322 -23.348  0.00  0.00    +0.162 A 
ATOM      2  C   UNL     1      -1.594   4.556 -23.613  0.00  0.00    +0.050 A 
ATOM      3  C   UNL     1      -0.592   5.310 -23.631  0.00  0.00    +0.008 A 
ATOM      4  C   UNL     1       0.545   4.839 -23.385  0.00  0.00    -0.035 A 
ATOM      5  C   UNL     1       0.697   3.614 -23.118  0.00  0.00    +0.012 A 
ATOM      6  C   UNL     1       1.835   3.150 -22.873  0.00  0.00    +0.054 C 
ATOM      7  C   UNL     1       3.077   2.507 -22.578  0.00  0.00    +0.067 C 
ATOM      8  C   UNL     1       4.226   3.331 -22.591  0.00  0.00    +0.132 C 
ATOM      9  N   UNL     1       4.047   4.702 -22.891  0.00  0.00    +0.236 N 
ATOM     10  H   UNL     1       4.841   5.341 -22.914  0.00  0.00    +0.203 HD
ATOM     11  C   UNL     1       5.013   5.500 -22.923  0.00  0.00    +0.190 C 
ATOM     12  C   UNL     1       2.710   5.134 -23.156  0.00  0.00    +0.072 C 
ATOM     13  C   UNL     1       2.840   3.900 -22.890  0.00  0.00    +0.053 C 
ATOM     14  C   UNL     1       3.991   3.429 -22.642  0.00  0.00    +0.015 C 
ATOM     15  C   UNL     1       4.124   2.209 -22.379  0.00  0.00    +0.069 C 
ATOM     16  C   UNL     1       3.115   1.442 -22.359  0.00  0.00    +0.208 C 
ATOM     17  C   UNL     1       1.977   1.911 -22.605  0.00  0.00    +0.244 C 
ATOM     18  O   UNL     1       0.495   1.631 -22.746  0.00  0.00    -0.479 OA
ATOM     19  C   UNL     1       1.572   5.603 -23.402  0.00  0.00    +0.090 C 
ATOM     20  C   UNL     1      -0.313   2.850 -23.099  0.00  0.00    +0.167 A 
ENDROOT
BRANCH   1  22
ATOM     21  C   UNL     1      -3.602   3.041 -23.044  0.00  0.00    +0.277 C 
ATOM     22  O   UNL     1      -2.472   2.572 -23.331  0.00  0.00    -0.491 OA
ENDBRANCH   1  22
BRANCH  16  23
ATOM     23  O   UNL     1       4.016   0.617 -22.073  0.00  0.00    -0.349 OA
ATOM     24  C   UNL     1       4.199   0.275 -20.880  0.00  0.00    +0.197 C 
ENDBRANCH  16  23
BRANCH  16  25
ATOM     25  O   UNL     1       2.424   0.402 -22.242  0.00  0.00    -0.349 OA
ATOM     26  C   UNL     1       2.358  -0.418 -23.188  0.00  0.00    +0.197 C 
ENDBRANCH  16  25
TORSDOF 3
ENDMDL
MODEL 8
REMARK VINA RESULT:    -7.879      3.764      5.409
REMARK INTER + INTRA:          -5.137
REMARK INTER:                  -9.261
REMARK INTRA:                   4.124
REMARK UNBOUND:                 4.124
REMARK  Name = COc1ccc2c3c1O[C@@H]1C(OC)(OC)CC[C@@H]4[C@H](C2)N(C)CC[C@]341         ZINC000096316412
REMARK  7 active torsions:
REMARK  status: ('A' for Active; 'I' for Inactive)
REMARK    1  A    between atoms: C_1  and  O_2
REMARK    2  A    between atoms: O_2  and  C_3
REMARK    3  A    between atoms: C_11  and  O_12
REMARK    4  A    between atoms: C_11  and  O_14
REMARK    5  A    between atoms: O_12  and  C_13
REMARK    6  A    between atoms: O_14  and  C_15
REMARK    7  A    between atoms: N_21  and  C_22
REMARK                            x       y       z     vdW  Elec       q    Type
REMARK                         _______ _______ _______ _____ _____    ______ ____
ROOT
ATOM      1  C   UNL     1       4.360   6.760 -22.307  0.00  0.00    +0.162 A 
ATOM      2  C   UNL     1       5.535   6.281 -22.325  0.00  0.00    +0.050 A 
ATOM      3  C   UNL     1       5.741   5.113 -22.728  0.00  0.00    +0.008 A 
ATOM      4  C   UNL     1       4.776   4.410 -23.117  0.00  0.00    -0.035 A 
ATOM      5  C   UNL     1       3.598   4.863 -23.109  0.00  0.00    +0.012 A 
ATOM      6  C   UNL     1       2.639   4.157 -23.499  0.00  0.00    +0.054 C 
ATOM      7  C   UNL     1       1.469   3.450 -23.917  0.00  0.00    +0.067 C 
ATOM      8  C   UNL     1       1.668   2.128 -24.378  0.00  0.00    +0.132 C 
ATOM      9  N   UNL     1       2.992   1.629 -24.384  0.00  0.00    +0.236 N 
ATOM     10  H   UNL     1       3.192   0.682 -24.706  0.00  0.00    +0.203 HD
ATOM     11  C   UNL     1       3.255   0.467 -24.777  0.00  0.00    +0.190 C 
ATOM     12  C   UNL     1       4.016   2.512 -23.920  0.00  0.00    +0.072 C 
ATOM     13  C   UNL     1       2.840   2.987 -23.903  0.00  0.00    +0.053 C 
ATOM     14  C   UNL     1       1.868   2.273 -24.297  0.00  0.00    +0.015 C 
ATOM     15  C   UNL     1       0.703   2.740 -24.282  0.00  0.00    +0.069 C 
ATOM     16  C   UNL     1       0.489   3.921 -23.876  0.00  0.00    +0.208 C 
ATOM     17  C   UNL     1       1.452   4.624 -23.486  0.00  0.00    +0.244 C 
ATOM     18  O   UNL     1       1.902   5.961 -22.932  0.00  0.00    -0.479 OA
ATOM     19  C   UNL     1       4.979   3.215 -23.531  0.00  0.00    +0.090 C 
ATOM     20  C   UNL     1       3.387   6.044 -22.702  0.00  0.00    +0.167 A 
ENDROOT
BRANCH   1  22
ATOM     21  C   UNL     1       4.513   8.264 -20.744  0.00  0.00    +0.277 C 
ATOM     22  O   UNL     1       4.160   7.929 -21.902  0.00  0.00    -0.491 OA
ENDBRANCH   1  22
BRANCH  16  23
ATOM     23  O   UNL     1      -0.683   3.576 -24.160  0.00  0.00    -0.349 OA
ATOM     24  C   UNL     1      -1.154   3.829 -25.296  0.00  0.00    +0.197 C 
ENDBRANCH  16  23
BRANCH  16  25
ATOM     25  O   UNL     1      -0.123   4.972 -23.570  0.00  0.00    -0.349 OA
ATOM     26  C   UNL     1      -1.024   4.943 -22.697  0.00  0.00    +0.197 C 
ENDBRANCH  16  25
TORSDOF 3
ENDMDL
MODEL 9
REMARK VINA RESULT:    -7.612      3.503      7.462
REMARK INTER + INTRA:          -4.823
REMARK INTER:                  -8.863
REMARK INTRA:                   4.041
REMARK UNBOUND:                 4.124
REMARK  Name = COc1ccc2c3c1O[C@@H]1C(OC)(OC)CC[C@@H]4[C@H](C2)N(C)CC[C@]341         ZINC000096316412
REMARK  7 active torsions:
REMARK  status: ('A' for Active; 'I' for Inactive)
REMARK    1  A    between atoms: C_1  and  O_2
REMARK    2  A    between atoms: O_2  and  C_3
REMARK    3  A    between atoms: C_11  and  O_12
REMARK    4  A    between atoms: C_11  and  O_14
REMARK    5  A    between atoms: O_12  and  C_13
REMARK    6  A    between atoms: O_14  and  C_15
REMARK    7  A    between atoms: N_21  and  C_22
REMARK                            x       y       z     vdW  Elec       q    Type
REMARK                         _______ _______ _______ _____ _____    ______ ____
ROOT
ATOM      1  C   UNL     1       0.346   3.675 -23.400  0.00  0.00    +0.162 A 
ATOM      2  C   UNL     1      -0.300   2.648 -23.031  0.00  0.00    +0.050 A 
ATOM      3  C   UNL     1       0.289   1.691 -22.476  0.00  0.00    +0.008 A 
ATOM      4  C   UNL     1       1.528   1.749 -22.285  0.00  0.00    -0.035 A 
ATOM      5  C   UNL     1       2.194   2.760 -22.643  0.00  0.00    +0.012 A 
ATOM      6  C   UNL     1       3.430   2.812 -22.449  0.00  0.00    +0.054 C 
ATOM      7  C   UNL     1       4.839   2.988 -22.283  0.00  0.00    +0.067 C 
ATOM      8  C   UNL     1       5.532   1.924 -21.660  0.00  0.00    +0.132 C 
ATOM      9  N   UNL     1       4.778   0.795 -21.261  0.00  0.00    +0.236 N 
ATOM     10  H   UNL     1       5.228  -0.001 -20.807  0.00  0.00    +0.203 HD
ATOM     11  C   UNL     1       5.315  -0.191 -20.702  0.00  0.00    +0.190 C 
ATOM     12  C   UNL     1       3.374   0.831 -21.526  0.00  0.00    +0.072 C 
ATOM     13  C   UNL     1       4.023   1.857 -21.895  0.00  0.00    +0.053 C 
ATOM     14  C   UNL     1       5.276   1.911 -21.699  0.00  0.00    +0.015 C 
ATOM     15  C   UNL     1       5.921   2.924 -22.062  0.00  0.00    +0.069 C 
ATOM     16  C   UNL     1       5.332   3.896 -22.623  0.00  0.00    +0.208 C 
ATOM     17  C   UNL     1       4.093   3.839 -22.815  0.00  0.00    +0.244 C 
ATOM     18  O   UNL     1       2.863   4.535 -23.361  0.00  0.00    -0.479 OA
ATOM     19  C   UNL     1       2.135   0.775 -21.719  0.00  0.00    +0.090 C 
ATOM     20  C   UNL     1       1.601   3.730 -23.204  0.00  0.00    +0.167 A 
ENDROOT
BRANCH   1  22
ATOM     21  C   UNL     1      -1.428   4.910 -23.632  0.00  0.00    +0.277 C 
ATOM     22  O   UNL     1      -0.247   4.631 -23.955  0.00  0.00    -0.491 OA
ENDBRANCH   1  22
BRANCH  16  23
ATOM     23  O   UNL     1       6.508   4.332 -22.621  0.00  0.00    -0.349 OA
ATOM     24  C   UNL     1       7.160   4.385 -23.691  0.00  0.00    +0.197 C 
ENDBRANCH  16  23
BRANCH  16  25
ATOM     25  O   UNL     1       5.150   5.005 -23.178  0.00  0.00    -0.349 OA
ATOM     26  C   UNL     1       5.340   6.067 -22.537  0.00  0.00    +0.197 C 
ENDBRANCH  16  25
TORSDOF 3
ENDMDL
