MODEL 1
REMARK VINA RESULT:    -9.762      0.000      0.000
REMARK INTER + INTRA:          -9.762
REMARK INTER:                  -9.762
REMARK INTRA:                   0.000
REMARK UNBOUND:                 0.000
REMARK  Name = ZINC000001531790
REMARK  2 active torsions:
REMARK  status: ('A' for Active; 'I' for Inactive)
REMARK    1  A    between atoms: C_1  and  C_2
REMARK    2  A    between atoms: C_2  and  C_3
REMARK                            x       y       z     vdW  Elec       q    Type
REMARK                         _______ _______ _______ _____ _____    ______ ____
ROOT
ATOM      1  C   UNL     1       0.126   1.509 -20.973  0.00  0.00    +0.055 C 
ATOM      2  C   UNL     1       0.203   1.927 -22.202  0.00  0.00    +0.105 C 
ATOM      3  C   UNL     1       0.709   2.217 -23.364  0.00  0.00    +0.052 C 
ATOM      4  C   UNL     1      -0.045   2.729 -24.290  0.00  0.00    +0.042 C 
ATOM      5  C   UNL     1      -1.304   2.951 -24.056  0.00  0.00    -0.014 C 
ATOM      6  C   UNL     1      -1.810   2.660 -22.894  0.00  0.00    +0.131 C 
ATOM      7  C   UNL     1      -3.069   2.882 -22.659  0.00  0.00    +0.028 A 
ATOM      8  C   UNL     1      -3.574   2.592 -21.497  0.00  0.00    +0.012 A 
ATOM      9  C   UNL     1      -4.834   2.813 -21.262  0.00  0.00    +0.001 A 
ATOM     10  C   UNL     1      -5.587   3.325 -22.189  0.00  0.00    +0.001 A 
ATOM     11  C   UNL     1      -5.082   3.616 -23.352  0.00  0.00    +0.012 A 
ATOM     12  C   UNL     1      -3.823   3.394 -23.587  0.00  0.00    +0.031 A 
ATOM     13  C   UNL     1      -3.317   3.684 -24.748  0.00  0.00    +0.174 C 
ATOM     14  O   UNL     1      -4.072   4.197 -25.675  0.00  0.00    -0.288 OA
ATOM     15  C   UNL     1      -2.058   3.463 -24.983  0.00  0.00    -0.085 C 
ATOM     16  O   UNL     1      -1.552   3.753 -26.145  0.00  0.00    -0.826 OA
ATOM     17  C   UNL     1       1.436   1.560 -22.010  0.00  0.00    +0.055 C 
ATOM     18  O   UNL     1      -1.056   2.148 -21.967  0.00  0.00    -0.485 OA
ENDROOT
TORSDOF 0
ENDMDL
MODEL 2
REMARK VINA RESULT:    -9.739      1.005      4.316
REMARK INTER + INTRA:          -9.739
REMARK INTER:                  -9.739
REMARK INTRA:                   0.000
REMARK UNBOUND:                 0.000
REMARK  Name = ZINC000001531790
REMARK  2 active torsions:
REMARK  status: ('A' for Active; 'I' for Inactive)
REMARK    1  A    between atoms: C_1  and  C_2
REMARK    2  A    between atoms: C_2  and  C_3
REMARK                            x       y       z     vdW  Elec       q    Type
REMARK                         _______ _______ _______ _____ _____    ______ ____
ROOT
ATOM      1  C   UNL     1      -4.507   2.626 -20.981  0.00  0.00    +0.055 C 
ATOM      2  C   UNL     1      -4.300   3.017 -22.204  0.00  0.00    +0.105 C 
ATOM      3  C   UNL     1      -4.536   3.491 -23.391  0.00  0.00    +0.052 C 
ATOM      4  C   UNL     1      -3.569   3.590 -24.254  0.00  0.00    +0.042 C 
ATOM      5  C   UNL     1      -2.368   3.215 -23.931  0.00  0.00    -0.014 C 
ATOM      6  C   UNL     1      -2.132   2.741 -22.744  0.00  0.00    +0.131 C 
ATOM      7  C   UNL     1      -0.930   2.365 -22.420  0.00  0.00    +0.028 A 
ATOM      8  C   UNL     1      -0.694   1.891 -21.233  0.00  0.00    +0.012 A 
ATOM      9  C   UNL     1       0.508   1.516 -20.909  0.00  0.00    +0.001 A 
ATOM     10  C   UNL     1       1.474   1.615 -21.773  0.00  0.00    +0.001 A 
ATOM     11  C   UNL     1       1.238   2.089 -22.961  0.00  0.00    +0.012 A 
ATOM     12  C   UNL     1       0.037   2.464 -23.284  0.00  0.00    +0.031 A 
ATOM     13  C   UNL     1      -0.199   2.938 -24.472  0.00  0.00    +0.174 C 
ATOM     14  O   UNL     1       0.768   3.037 -25.335  0.00  0.00    -0.288 OA
ATOM     15  C   UNL     1      -1.401   3.313 -24.795  0.00  0.00    -0.085 C 
ATOM     16  O   UNL     1      -1.637   3.787 -25.982  0.00  0.00    -0.826 OA
ATOM     17  C   UNL     1      -5.574   3.256 -22.102  0.00  0.00    +0.055 C 
ATOM     18  O   UNL     1      -3.098   2.642 -21.880  0.00  0.00    -0.485 OA
ENDROOT
TORSDOF 0
ENDMDL
MODEL 3
REMARK VINA RESULT:    -9.652      1.552      3.092
REMARK INTER + INTRA:          -9.652
REMARK INTER:                  -9.652
REMARK INTRA:                   0.000
REMARK UNBOUND:                 0.000
REMARK  Name = ZINC000001531790
REMARK  2 active torsions:
REMARK  status: ('A' for Active; 'I' for Inactive)
REMARK    1  A    between atoms: C_1  and  C_2
REMARK    2  A    between atoms: C_2  and  C_3
REMARK                            x       y       z     vdW  Elec       q    Type
REMARK                         _______ _______ _______ _____ _____    ______ ____
ROOT
ATOM      1  C   UNL     1       0.981   2.221 -23.883  0.00  0.00    +0.055 C 
ATOM      2  C   UNL     1       0.247   2.207 -22.810  0.00  0.00    +0.105 C 
ATOM      3  C   UNL     1      -0.090   2.067 -21.562  0.00  0.00    +0.052 C 
ATOM      4  C   UNL     1      -1.315   2.294 -21.190  0.00  0.00    +0.042 C 
ATOM      5  C   UNL     1      -2.202   2.661 -22.066  0.00  0.00    -0.014 C 
ATOM      6  C   UNL     1      -1.865   2.801 -23.314  0.00  0.00    +0.131 C 
ATOM      7  C   UNL     1      -2.753   3.168 -24.190  0.00  0.00    +0.028 A 
ATOM      8  C   UNL     1      -2.416   3.308 -25.438  0.00  0.00    +0.012 A 
ATOM      9  C   UNL     1      -3.304   3.674 -26.314  0.00  0.00    +0.001 A 
ATOM     10  C   UNL     1      -4.529   3.901 -25.942  0.00  0.00    +0.001 A 
ATOM     11  C   UNL     1      -4.866   3.762 -24.694  0.00  0.00    +0.012 A 
ATOM     12  C   UNL     1      -3.978   3.395 -23.818  0.00  0.00    +0.031 A 
ATOM     13  C   UNL     1      -4.315   3.255 -22.570  0.00  0.00    +0.174 C 
ATOM     14  O   UNL     1      -5.540   3.482 -22.199  0.00  0.00    -0.288 OA
ATOM     15  C   UNL     1      -3.428   2.888 -21.694  0.00  0.00    -0.085 C 
ATOM     16  O   UNL     1      -3.764   2.748 -20.447  0.00  0.00    -0.826 OA
ATOM     17  C   UNL     1       1.389   1.845 -22.307  0.00  0.00    +0.055 C 
ATOM     18  O   UNL     1      -0.641   2.574 -23.686  0.00  0.00    -0.485 OA
ENDROOT
TORSDOF 0
ENDMDL
MODEL 4
REMARK VINA RESULT:    -9.331      1.225      1.613
REMARK INTER + INTRA:          -9.331
REMARK INTER:                  -9.331
REMARK INTRA:                   0.000
REMARK UNBOUND:                 0.000
REMARK  Name = ZINC000001531790
REMARK  2 active torsions:
REMARK  status: ('A' for Active; 'I' for Inactive)
REMARK    1  A    between atoms: C_1  and  C_2
REMARK    2  A    between atoms: C_2  and  C_3
REMARK                            x       y       z     vdW  Elec       q    Type
REMARK                         _______ _______ _______ _____ _____    ______ ____
ROOT
ATOM      1  C   UNL     1       1.300   3.002 -22.735  0.00  0.00    +0.055 C 
ATOM      2  C   UNL     1       0.660   3.199 -23.849  0.00  0.00    +0.105 C 
ATOM      3  C   UNL     1       0.445   3.387 -25.117  0.00  0.00    +0.052 C 
ATOM      4  C   UNL     1      -0.770   3.533 -25.555  0.00  0.00    +0.042 C 
ATOM      5  C   UNL     1      -1.769   3.490 -24.725  0.00  0.00    -0.014 C 
ATOM      6  C   UNL     1      -1.554   3.301 -23.457  0.00  0.00    +0.131 C 
ATOM      7  C   UNL     1      -2.554   3.259 -22.627  0.00  0.00    +0.028 A 
ATOM      8  C   UNL     1      -2.339   3.070 -21.359  0.00  0.00    +0.012 A 
ATOM      9  C   UNL     1      -3.338   3.027 -20.529  0.00  0.00    +0.001 A 
ATOM     10  C   UNL     1      -4.553   3.173 -20.967  0.00  0.00    +0.001 A 
ATOM     11  C   UNL     1      -4.769   3.361 -22.236  0.00  0.00    +0.012 A 
ATOM     12  C   UNL     1      -3.769   3.404 -23.066  0.00  0.00    +0.031 A 
ATOM     13  C   UNL     1      -3.985   3.593 -24.334  0.00  0.00    +0.174 C 
ATOM     14  O   UNL     1      -5.200   3.738 -24.771  0.00  0.00    -0.288 OA
ATOM     15  C   UNL     1      -2.985   3.635 -25.164  0.00  0.00    -0.085 C 
ATOM     16  O   UNL     1      -3.200   3.824 -26.432  0.00  0.00    -0.826 OA
ATOM     17  C   UNL     1       1.882   3.173 -24.292  0.00  0.00    +0.055 C 
ATOM     18  O   UNL     1      -0.339   3.156 -23.019  0.00  0.00    -0.485 OA
ENDROOT
TORSDOF 0
ENDMDL
MODEL 5
REMARK VINA RESULT:    -9.107      1.448      5.249
REMARK INTER + INTRA:          -9.107
REMARK INTER:                  -9.107
REMARK INTRA:                   0.000
REMARK UNBOUND:                 0.000
REMARK  Name = ZINC000001531790
REMARK  2 active torsions:
REMARK  status: ('A' for Active; 'I' for Inactive)
REMARK    1  A    between atoms: C_1  and  C_2
REMARK    2  A    between atoms: C_2  and  C_3
REMARK                            x       y       z     vdW  Elec       q    Type
REMARK                         _______ _______ _______ _____ _____    ______ ____
ROOT
ATOM      1  C   UNL     1      -4.225   3.958 -23.836  0.00  0.00    +0.055 C 
ATOM      2  C   UNL     1      -3.724   3.283 -22.844  0.00  0.00    +0.105 C 
ATOM      3  C   UNL     1      -3.655   2.635 -21.720  0.00  0.00    +0.052 C 
ATOM      4  C   UNL     1      -2.519   2.142 -21.323  0.00  0.00    +0.042 C 
ATOM      5  C   UNL     1      -1.453   2.298 -22.052  0.00  0.00    -0.014 C 
ATOM      6  C   UNL     1      -1.523   2.946 -23.176  0.00  0.00    +0.131 C 
ATOM      7  C   UNL     1      -0.458   3.101 -23.904  0.00  0.00    +0.028 A 
ATOM      8  C   UNL     1      -0.528   3.749 -25.029  0.00  0.00    +0.012 A 
ATOM      9  C   UNL     1       0.538   3.905 -25.757  0.00  0.00    +0.001 A 
ATOM     10  C   UNL     1       1.674   3.413 -25.361  0.00  0.00    +0.001 A 
ATOM     11  C   UNL     1       1.744   2.764 -24.236  0.00  0.00    +0.012 A 
ATOM     12  C   UNL     1       0.678   2.609 -23.507  0.00  0.00    +0.031 A 
ATOM     13  C   UNL     1       0.748   1.961 -22.383  0.00  0.00    +0.174 C 
ATOM     14  O   UNL     1       1.885   1.468 -21.987  0.00  0.00    -0.288 OA
ATOM     15  C   UNL     1      -0.317   1.805 -21.655  0.00  0.00    -0.085 C 
ATOM     16  O   UNL     1      -0.247   1.157 -20.530  0.00  0.00    -0.826 OA
ATOM     17  C   UNL     1      -4.964   3.362 -22.461  0.00  0.00    +0.055 C 
ATOM     18  O   UNL     1      -2.659   3.438 -23.573  0.00  0.00    -0.485 OA
ENDROOT
TORSDOF 0
ENDMDL
MODEL 6
REMARK VINA RESULT:    -8.638      1.746      3.966
REMARK INTER + INTRA:          -8.638
REMARK INTER:                  -8.638
REMARK INTRA:                   0.000
REMARK UNBOUND:                 0.000
REMARK  Name = ZINC000001531790
REMARK  2 active torsions:
REMARK  status: ('A' for Active; 'I' for Inactive)
REMARK    1  A    between atoms: C_1  and  C_2
REMARK    2  A    between atoms: C_2  and  C_3
REMARK                            x       y       z     vdW  Elec       q    Type
REMARK                         _______ _______ _______ _____ _____    ______ ____
ROOT
ATOM      1  C   UNL     1      -5.253   2.861 -21.611  0.00  0.00    +0.055 C 
ATOM      2  C   UNL     1      -3.966   2.978 -21.469  0.00  0.00    +0.105 C 
ATOM      3  C   UNL     1      -2.802   3.049 -20.895  0.00  0.00    +0.052 C 
ATOM      4  C   UNL     1      -1.732   3.212 -21.614  0.00  0.00    +0.042 C 
ATOM      5  C   UNL     1      -1.826   3.304 -22.908  0.00  0.00    -0.014 C 
ATOM      6  C   UNL     1      -2.990   3.232 -23.482  0.00  0.00    +0.131 C 
ATOM      7  C   UNL     1      -3.084   3.324 -24.775  0.00  0.00    +0.028 A 
ATOM      8  C   UNL     1      -4.248   3.253 -25.349  0.00  0.00    +0.012 A 
ATOM      9  C   UNL     1      -4.341   3.344 -26.643  0.00  0.00    +0.001 A 
ATOM     10  C   UNL     1      -3.271   3.507 -27.362  0.00  0.00    +0.001 A 
ATOM     11  C   UNL     1      -2.106   3.578 -26.788  0.00  0.00    +0.012 A 
ATOM     12  C   UNL     1      -2.012   3.487 -25.495  0.00  0.00    +0.031 A 
ATOM     13  C   UNL     1      -0.848   3.558 -24.921  0.00  0.00    +0.174 C 
ATOM     14  O   UNL     1       0.222   3.721 -25.641  0.00  0.00    -0.288 OA
ATOM     15  C   UNL     1      -0.755   3.466 -23.627  0.00  0.00    -0.085 C 
ATOM     16  O   UNL     1       0.409   3.538 -23.053  0.00  0.00    -0.826 OA
ATOM     17  C   UNL     1      -4.320   2.846 -20.225  0.00  0.00    +0.055 C 
ATOM     18  O   UNL     1      -4.060   3.070 -22.762  0.00  0.00    -0.485 OA
ENDROOT
TORSDOF 0
ENDMDL
MODEL 7
REMARK VINA RESULT:    -8.599      1.737      4.813
REMARK INTER + INTRA:          -8.599
REMARK INTER:                  -8.599
REMARK INTRA:                   0.000
REMARK UNBOUND:                 0.000
REMARK  Name = ZINC000001531790
REMARK  2 active torsions:
REMARK  status: ('A' for Active; 'I' for Inactive)
REMARK    1  A    between atoms: C_1  and  C_2
REMARK    2  A    between atoms: C_2  and  C_3
REMARK                            x       y       z     vdW  Elec       q    Type
REMARK                         _______ _______ _______ _____ _____    ______ ____
ROOT
ATOM      1  C   UNL     1      -2.493   3.376 -26.799  0.00  0.00    +0.055 C 
ATOM      2  C   UNL     1      -3.490   3.566 -25.988  0.00  0.00    +0.105 C 
ATOM      3  C   UNL     1      -4.682   3.869 -25.568  0.00  0.00    +0.052 C 
ATOM      4  C   UNL     1      -4.968   3.779 -24.303  0.00  0.00    +0.042 C 
ATOM      5  C   UNL     1      -4.062   3.384 -23.458  0.00  0.00    -0.014 C 
ATOM      6  C   UNL     1      -2.870   3.080 -23.878  0.00  0.00    +0.131 C 
ATOM      7  C   UNL     1      -1.964   2.686 -23.034  0.00  0.00    +0.028 A 
ATOM      8  C   UNL     1      -0.772   2.382 -23.454  0.00  0.00    +0.012 A 
ATOM      9  C   UNL     1       0.134   1.987 -22.609  0.00  0.00    +0.001 A 
ATOM     10  C   UNL     1      -0.152   1.896 -21.345  0.00  0.00    +0.001 A 
ATOM     11  C   UNL     1      -1.345   2.200 -20.924  0.00  0.00    +0.012 A 
ATOM     12  C   UNL     1      -2.251   2.595 -21.768  0.00  0.00    +0.031 A 
ATOM     13  C   UNL     1      -3.443   2.899 -21.349  0.00  0.00    +0.174 C 
ATOM     14  O   UNL     1      -3.728   2.808 -20.083  0.00  0.00    -0.288 OA
ATOM     15  C   UNL     1      -4.349   3.294 -22.193  0.00  0.00    -0.085 C 
ATOM     16  O   UNL     1      -5.541   3.597 -21.773  0.00  0.00    -0.826 OA
ATOM     17  C   UNL     1      -4.049   3.894 -27.114  0.00  0.00    +0.055 C 
ATOM     18  O   UNL     1      -2.584   3.171 -25.143  0.00  0.00    -0.485 OA
ENDROOT
TORSDOF 0
ENDMDL
MODEL 8
REMARK VINA RESULT:    -8.490      1.188      5.361
REMARK INTER + INTRA:          -8.490
REMARK INTER:                  -8.490
REMARK INTRA:                   0.000
REMARK UNBOUND:                 0.000
REMARK  Name = ZINC000001531790
REMARK  2 active torsions:
REMARK  status: ('A' for Active; 'I' for Inactive)
REMARK    1  A    between atoms: C_1  and  C_2
REMARK    2  A    between atoms: C_2  and  C_3
REMARK                            x       y       z     vdW  Elec       q    Type
REMARK                         _______ _______ _______ _____ _____    ______ ____
ROOT
ATOM      1  C   UNL     1      -3.541   4.378 -25.866  0.00  0.00    +0.055 C 
ATOM      2  C   UNL     1      -3.703   3.868 -24.682  0.00  0.00    +0.105 C 
ATOM      3  C   UNL     1      -4.289   3.481 -23.588  0.00  0.00    +0.052 C 
ATOM      4  C   UNL     1      -3.596   2.918 -22.644  0.00  0.00    +0.042 C 
ATOM      5  C   UNL     1      -2.317   2.742 -22.793  0.00  0.00    -0.014 C 
ATOM      6  C   UNL     1      -1.730   3.129 -23.887  0.00  0.00    +0.131 C 
ATOM      7  C   UNL     1      -0.451   2.952 -24.036  0.00  0.00    +0.028 A 
ATOM      8  C   UNL     1       0.135   3.340 -25.129  0.00  0.00    +0.012 A 
ATOM      9  C   UNL     1       1.415   3.163 -25.278  0.00  0.00    +0.001 A 
ATOM     10  C   UNL     1       2.108   2.600 -24.334  0.00  0.00    +0.001 A 
ATOM     11  C   UNL     1       1.521   2.212 -23.240  0.00  0.00    +0.012 A 
ATOM     12  C   UNL     1       0.242   2.389 -23.091  0.00  0.00    +0.031 A 
ATOM     13  C   UNL     1      -0.344   2.002 -21.997  0.00  0.00    +0.174 C 
ATOM     14  O   UNL     1       0.349   1.438 -21.053  0.00  0.00    -0.288 OA
ATOM     15  C   UNL     1      -1.624   2.178 -21.848  0.00  0.00    -0.085 C 
ATOM     16  O   UNL     1      -2.210   1.791 -20.754  0.00  0.00    -0.826 OA
ATOM     17  C   UNL     1      -4.926   4.222 -24.944  0.00  0.00    +0.055 C 
ATOM     18  O   UNL     1      -2.423   3.692 -24.831  0.00  0.00    -0.485 OA
ENDROOT
TORSDOF 0
ENDMDL
MODEL 9
REMARK VINA RESULT:    -8.197      2.898      4.924
REMARK INTER + INTRA:          -8.197
REMARK INTER:                  -8.197
REMARK INTRA:                   0.000
REMARK UNBOUND:                 0.000
REMARK  Name = ZINC000001531790
REMARK  2 active torsions:
REMARK  status: ('A' for Active; 'I' for Inactive)
REMARK    1  A    between atoms: C_1  and  C_2
REMARK    2  A    between atoms: C_2  and  C_3
REMARK                            x       y       z     vdW  Elec       q    Type
REMARK                         _______ _______ _______ _____ _____    ______ ____
ROOT
ATOM      1  C   UNL     1       5.018   3.003 -23.525  0.00  0.00    +0.055 C 
ATOM      2  C   UNL     1       4.350   2.454 -22.554  0.00  0.00    +0.105 C 
ATOM      3  C   UNL     1       4.102   1.848 -21.431  0.00  0.00    +0.052 C 
ATOM      4  C   UNL     1       2.875   1.597 -21.085  0.00  0.00    +0.042 C 
ATOM      5  C   UNL     1       1.895   1.953 -21.861  0.00  0.00    -0.014 C 
ATOM      6  C   UNL     1       2.142   2.559 -22.984  0.00  0.00    +0.131 C 
ATOM      7  C   UNL     1       1.162   2.914 -23.761  0.00  0.00    +0.028 A 
ATOM      8  C   UNL     1       1.409   3.520 -24.884  0.00  0.00    +0.012 A 
ATOM      9  C   UNL     1       0.429   3.876 -25.660  0.00  0.00    +0.001 A 
ATOM     10  C   UNL     1      -0.798   3.625 -25.314  0.00  0.00    +0.001 A 
ATOM     11  C   UNL     1      -1.046   3.018 -24.190  0.00  0.00    +0.012 A 
ATOM     12  C   UNL     1      -0.066   2.663 -23.414  0.00  0.00    +0.031 A 
ATOM     13  C   UNL     1      -0.313   2.057 -22.291  0.00  0.00    +0.174 C 
ATOM     14  O   UNL     1      -1.541   1.806 -21.945  0.00  0.00    -0.288 OA
ATOM     15  C   UNL     1       0.667   1.701 -21.514  0.00  0.00    -0.085 C 
ATOM     16  O   UNL     1       0.420   1.095 -20.391  0.00  0.00    -0.826 OA
ATOM     17  C   UNL     1       5.562   2.290 -22.115  0.00  0.00    +0.055 C 
ATOM     18  O   UNL     1       3.369   2.810 -23.331  0.00  0.00    -0.485 OA
ENDROOT
TORSDOF 0
ENDMDL
