MODEL 1
REMARK VINA RESULT:    -8.774      0.000      0.000
REMARK INTER + INTRA:         -10.831
REMARK INTER:                 -10.953
REMARK INTRA:                   0.121
REMARK UNBOUND:                -0.005
REMARK  Name = ZINC000013380841
REMARK  7 active torsions:
REMARK  status: ('A' for Active; 'I' for Inactive)
REMARK    1  A    between atoms: C_1  and  O_2
REMARK    2  A    between atoms: O_2  and  C_3
REMARK    3  A    between atoms: C_9  and  O_10
REMARK    4  A    between atoms: O_10  and  C_11
REMARK    5  A    between atoms: C_11  and  C_12
REMARK    6  A    between atoms: C_14  and  C_15
REMARK    7  A    between atoms: C_14  and  C_16
REMARK                            x       y       z     vdW  Elec       q    Type
REMARK                         _______ _______ _______ _____ _____    ______ ____
ROOT
ATOM      1  C   UNL     1       3.081   2.803 -23.330  0.00  0.00    +0.142 A 
ATOM      2  C   UNL     1       3.101   2.038 -22.280  0.00  0.00    +0.066 A 
ATOM      3  C   UNL     1       4.068   1.652 -21.501  0.00  0.00    +0.053 A 
ATOM      4  C   UNL     1       3.566   0.884 -20.581  0.00  0.00    +0.196 A 
ATOM      5  O   UNL     1       2.286   0.795 -20.791  0.00  0.00    -0.459 OA
ATOM      6  C   UNL     1       1.999   1.508 -21.839  0.00  0.00    +0.183 A 
ATOM      7  C   UNL     1       0.878   1.743 -22.451  0.00  0.00    +0.207 A 
ATOM      8  C   UNL     1       0.855   2.508 -23.502  0.00  0.00    +0.188 A 
ATOM      9  O   UNL     1      -0.268   2.742 -24.111  0.00  0.00    -0.418 OA
ATOM     10  C   UNL     1      -0.291   3.507 -25.163  0.00  0.00    +0.337 A 
ATOM     11  C   UNL     1       0.812   4.036 -25.602  0.00  0.00    +0.093 A 
ATOM     12  C   UNL     1       1.936   3.803 -24.993  0.00  0.00    +0.022 A 
ATOM     13  O   UNL     1      -1.414   3.740 -25.773  0.00  0.00    -0.245 OA
ATOM     14  C   UNL     1       1.957   3.038 -23.941  0.00  0.00    +0.064 A 
ENDROOT
BRANCH   1  16
ATOM     15  C   UNL     1       4.648   4.416 -23.221  0.00  0.00    +0.277 C 
ATOM     16  O   UNL     1       4.183   3.333 -23.769  0.00  0.00    -0.494 OA
ENDBRANCH   1  16
BRANCH   7  17
ATOM     17  O   UNL     1      -0.227   1.213 -22.011  0.00  0.00    -0.482 OA
BRANCH  17  18
ATOM     18  C   UNL     1      -0.986   1.877 -21.190  0.00  0.00    +0.263 C 
BRANCH  18  19
ATOM     19  C   UNL     1      -2.153   2.301 -21.580  0.00  0.00    +0.188 C 
ATOM     20  O   UNL     1      -3.090   2.346 -22.483  0.00  0.00    -0.362 OA
ATOM     21  C   UNL     1      -3.232   2.985 -21.358  0.00  0.00    +0.094 C 
ATOM     22  C   UNL     1      -2.969   3.442 -20.169  0.00  0.00    +0.044 C 
ATOM     23  C   UNL     1      -4.406   3.514 -21.548  0.00  0.00    +0.044 C 
ENDBRANCH  18  19
ENDBRANCH  17  18
ENDBRANCH   7  17
TORSDOF 4
ENDMDL
MODEL 2
REMARK VINA RESULT:    -8.653      1.734      5.301
REMARK INTER + INTRA:         -10.681
REMARK INTER:                 -10.801
REMARK INTRA:                   0.119
REMARK UNBOUND:                -0.005
REMARK  Name = ZINC000013380841
REMARK  7 active torsions:
REMARK  status: ('A' for Active; 'I' for Inactive)
REMARK    1  A    between atoms: C_1  and  O_2
REMARK    2  A    between atoms: O_2  and  C_3
REMARK    3  A    between atoms: C_9  and  O_10
REMARK    4  A    between atoms: O_10  and  C_11
REMARK    5  A    between atoms: C_11  and  C_12
REMARK    6  A    between atoms: C_14  and  C_15
REMARK    7  A    between atoms: C_14  and  C_16
REMARK                            x       y       z     vdW  Elec       q    Type
REMARK                         _______ _______ _______ _____ _____    ______ ____
ROOT
ATOM      1  C   UNL     1      -2.611   2.622 -21.828  0.00  0.00    +0.142 A 
ATOM      2  C   UNL     1      -1.384   2.193 -21.836  0.00  0.00    +0.066 A 
ATOM      3  C   UNL     1      -0.638   1.670 -20.908  0.00  0.00    +0.053 A 
ATOM      4  C   UNL     1       0.526   1.405 -21.424  0.00  0.00    +0.196 A 
ATOM      5  O   UNL     1       0.498   1.766 -22.673  0.00  0.00    -0.459 OA
ATOM      6  C   UNL     1      -0.680   2.252 -22.927  0.00  0.00    +0.183 A 
ATOM      7  C   UNL     1      -1.205   2.741 -24.010  0.00  0.00    +0.207 A 
ATOM      8  C   UNL     1      -2.432   3.171 -24.004  0.00  0.00    +0.188 A 
ATOM      9  O   UNL     1      -2.954   3.660 -25.088  0.00  0.00    -0.418 OA
ATOM     10  C   UNL     1      -4.182   4.090 -25.084  0.00  0.00    +0.337 A 
ATOM     11  C   UNL     1      -4.884   4.030 -23.991  0.00  0.00    +0.093 A 
ATOM     12  C   UNL     1      -4.362   3.542 -22.906  0.00  0.00    +0.022 A 
ATOM     13  O   UNL     1      -4.704   4.579 -26.168  0.00  0.00    -0.245 OA
ATOM     14  C   UNL     1      -3.134   3.111 -22.913  0.00  0.00    +0.064 A 
ENDROOT
BRANCH   1  16
ATOM     15  C   UNL     1      -3.262   3.536 -19.876  0.00  0.00    +0.277 C 
ATOM     16  O   UNL     1      -3.313   2.563 -20.736  0.00  0.00    -0.494 OA
ENDBRANCH   1  16
BRANCH   7  17
ATOM     17  O   UNL     1      -0.502   2.801 -25.104  0.00  0.00    -0.482 OA
BRANCH  17  18
ATOM     18  C   UNL     1       0.309   3.798 -25.303  0.00  0.00    +0.263 C 
BRANCH  18  19
ATOM     19  C   UNL     1       1.500   3.784 -24.779  0.00  0.00    +0.188 C 
ATOM     20  O   UNL     1       2.698   3.278 -24.722  0.00  0.00    -0.362 OA
ATOM     21  C   UNL     1       2.363   4.261 -23.936  0.00  0.00    +0.094 C 
ATOM     22  C   UNL     1       1.644   5.188 -23.377  0.00  0.00    +0.044 C 
ATOM     23  C   UNL     1       3.478   4.417 -23.285  0.00  0.00    +0.044 C 
ENDBRANCH  18  19
ENDBRANCH  17  18
ENDBRANCH   7  17
TORSDOF 4
ENDMDL
MODEL 3
REMARK VINA RESULT:    -8.617      2.170      6.037
REMARK INTER + INTRA:         -10.637
REMARK INTER:                 -10.733
REMARK INTRA:                   0.096
REMARK UNBOUND:                -0.005
REMARK  Name = ZINC000013380841
REMARK  7 active torsions:
REMARK  status: ('A' for Active; 'I' for Inactive)
REMARK    1  A    between atoms: C_1  and  O_2
REMARK    2  A    between atoms: O_2  and  C_3
REMARK    3  A    between atoms: C_9  and  O_10
REMARK    4  A    between atoms: O_10  and  C_11
REMARK    5  A    between atoms: C_11  and  C_12
REMARK    6  A    between atoms: C_14  and  C_15
REMARK    7  A    between atoms: C_14  and  C_16
REMARK                            x       y       z     vdW  Elec       q    Type
REMARK                         _______ _______ _______ _____ _____    ______ ____
ROOT
ATOM      1  C   UNL     1      -4.690   3.571 -22.768  0.00  0.00    +0.142 A 
ATOM      2  C   UNL     1      -3.824   3.626 -21.799  0.00  0.00    +0.066 A 
ATOM      3  C   UNL     1      -3.964   3.653 -20.507  0.00  0.00    +0.053 A 
ATOM      4  C   UNL     1      -2.780   3.709 -19.972  0.00  0.00    +0.196 A 
ATOM      5  O   UNL     1      -1.908   3.717 -20.936  0.00  0.00    -0.459 OA
ATOM      6  C   UNL     1      -2.552   3.666 -22.063  0.00  0.00    +0.183 A 
ATOM      7  C   UNL     1      -2.147   3.651 -23.297  0.00  0.00    +0.207 A 
ATOM      8  C   UNL     1      -3.010   3.595 -24.268  0.00  0.00    +0.188 A 
ATOM      9  O   UNL     1      -2.602   3.580 -25.500  0.00  0.00    -0.418 OA
ATOM     10  C   UNL     1      -3.465   3.525 -26.472  0.00  0.00    +0.337 A 
ATOM     11  C   UNL     1      -4.737   3.485 -26.206  0.00  0.00    +0.093 A 
ATOM     12  C   UNL     1      -5.146   3.500 -24.972  0.00  0.00    +0.022 A 
ATOM     13  O   UNL     1      -3.057   3.509 -27.705  0.00  0.00    -0.245 OA
ATOM     14  C   UNL     1      -4.281   3.555 -24.002  0.00  0.00    +0.064 A 
ENDROOT
BRANCH   1  16
ATOM     15  C   UNL     1      -6.445   2.563 -21.782  0.00  0.00    +0.277 C 
ATOM     16  O   UNL     1      -5.961   3.531 -22.502  0.00  0.00    -0.494 OA
ENDBRANCH   1  16
BRANCH   7  17
ATOM     17  O   UNL     1      -0.874   3.691 -23.564  0.00  0.00    -0.482 OA
BRANCH  17  18
ATOM     18  C   UNL     1      -0.214   2.587 -23.758  0.00  0.00    +0.263 C 
BRANCH  18  19
ATOM     19  C   UNL     1       0.860   2.339 -23.065  0.00  0.00    +0.188 C 
ATOM     20  O   UNL     1       2.151   2.416 -22.925  0.00  0.00    -0.362 OA
ATOM     21  C   UNL     1       1.426   1.836 -22.012  0.00  0.00    +0.094 C 
ATOM     22  C   UNL     1       0.381   1.376 -21.391  0.00  0.00    +0.044 C 
ATOM     23  C   UNL     1       2.358   1.491 -21.172  0.00  0.00    +0.044 C 
ENDBRANCH  18  19
ENDBRANCH  17  18
ENDBRANCH   7  17
TORSDOF 4
ENDMDL
MODEL 4
REMARK VINA RESULT:    -8.571      1.602      6.255
REMARK INTER + INTRA:         -10.580
REMARK INTER:                 -10.927
REMARK INTRA:                   0.346
REMARK UNBOUND:                -0.005
REMARK  Name = ZINC000013380841
REMARK  7 active torsions:
REMARK  status: ('A' for Active; 'I' for Inactive)
REMARK    1  A    between atoms: C_1  and  O_2
REMARK    2  A    between atoms: O_2  and  C_3
REMARK    3  A    between atoms: C_9  and  O_10
REMARK    4  A    between atoms: O_10  and  C_11
REMARK    5  A    between atoms: C_11  and  C_12
REMARK    6  A    between atoms: C_14  and  C_15
REMARK    7  A    between atoms: C_14  and  C_16
REMARK                            x       y       z     vdW  Elec       q    Type
REMARK                         _______ _______ _______ _____ _____    ______ ____
ROOT
ATOM      1  C   UNL     1      -2.912   2.833 -22.729  0.00  0.00    +0.142 A 
ATOM      2  C   UNL     1      -3.146   3.373 -23.889  0.00  0.00    +0.066 A 
ATOM      3  C   UNL     1      -4.215   3.910 -24.400  0.00  0.00    +0.053 A 
ATOM      4  C   UNL     1      -3.932   4.308 -25.605  0.00  0.00    +0.196 A 
ATOM      5  O   UNL     1      -2.687   4.016 -25.838  0.00  0.00    -0.459 OA
ATOM      6  C   UNL     1      -2.202   3.439 -24.779  0.00  0.00    +0.183 A 
ATOM      7  C   UNL     1      -1.023   2.965 -24.509  0.00  0.00    +0.207 A 
ATOM      8  C   UNL     1      -0.786   2.424 -23.351  0.00  0.00    +0.188 A 
ATOM      9  O   UNL     1       0.393   1.951 -23.083  0.00  0.00    -0.418 OA
ATOM     10  C   UNL     1       0.631   1.410 -21.924  0.00  0.00    +0.337 A 
ATOM     11  C   UNL     1      -0.315   1.345 -21.035  0.00  0.00    +0.093 A 
ATOM     12  C   UNL     1      -1.496   1.819 -21.302  0.00  0.00    +0.022 A 
ATOM     13  O   UNL     1       1.810   0.937 -21.657  0.00  0.00    -0.245 OA
ATOM     14  C   UNL     1      -1.732   2.359 -22.462  0.00  0.00    +0.064 A 
ENDROOT
BRANCH   1  16
ATOM     15  C   UNL     1      -4.020   3.739 -20.992  0.00  0.00    +0.277 C 
ATOM     16  O   UNL     1      -3.857   2.768 -21.840  0.00  0.00    -0.494 OA
ENDBRANCH   1  16
BRANCH   7  17
ATOM     17  O   UNL     1      -0.076   3.030 -25.400  0.00  0.00    -0.482 OA
BRANCH  17  18
ATOM     18  C   UNL     1       0.806   3.984 -25.343  0.00  0.00    +0.263 C 
BRANCH  18  19
ATOM     19  C   UNL     1       1.934   3.793 -24.723  0.00  0.00    +0.188 C 
ATOM     20  O   UNL     1       3.029   3.107 -24.565  0.00  0.00    -0.362 OA
ATOM     21  C   UNL     1       2.790   4.143 -23.814  0.00  0.00    +0.094 C 
ATOM     22  C   UNL     1       2.183   5.181 -23.320  0.00  0.00    +0.044 C 
ATOM     23  C   UNL     1       3.860   4.134 -23.074  0.00  0.00    +0.044 C 
ENDBRANCH  18  19
ENDBRANCH  17  18
ENDBRANCH   7  17
TORSDOF 4
ENDMDL
MODEL 5
REMARK VINA RESULT:    -8.305      1.796      5.696
REMARK INTER + INTRA:         -10.252
REMARK INTER:                 -10.570
REMARK INTRA:                   0.318
REMARK UNBOUND:                -0.005
REMARK  Name = ZINC000013380841
REMARK  7 active torsions:
REMARK  status: ('A' for Active; 'I' for Inactive)
REMARK    1  A    between atoms: C_1  and  O_2
REMARK    2  A    between atoms: O_2  and  C_3
REMARK    3  A    between atoms: C_9  and  O_10
REMARK    4  A    between atoms: O_10  and  C_11
REMARK    5  A    between atoms: C_11  and  C_12
REMARK    6  A    between atoms: C_14  and  C_15
REMARK    7  A    between atoms: C_14  and  C_16
REMARK                            x       y       z     vdW  Elec       q    Type
REMARK                         _______ _______ _______ _____ _____    ______ ____
ROOT
ATOM      1  C   UNL     1      -3.496   3.619 -24.256  0.00  0.00    +0.142 A 
ATOM      2  C   UNL     1      -4.007   3.373 -23.087  0.00  0.00    +0.066 A 
ATOM      3  C   UNL     1      -5.232   3.385 -22.651  0.00  0.00    +0.053 A 
ATOM      4  C   UNL     1      -5.218   3.063 -21.391  0.00  0.00    +0.196 A 
ATOM      5  O   UNL     1      -3.982   2.850 -21.049  0.00  0.00    -0.459 OA
ATOM      6  C   UNL     1      -3.235   3.042 -22.095  0.00  0.00    +0.183 A 
ATOM      7  C   UNL     1      -1.951   2.957 -22.274  0.00  0.00    +0.207 A 
ATOM      8  C   UNL     1      -1.438   3.203 -23.443  0.00  0.00    +0.188 A 
ATOM      9  O   UNL     1      -0.154   3.118 -23.620  0.00  0.00    -0.418 OA
ATOM     10  C   UNL     1       0.361   3.365 -24.789  0.00  0.00    +0.337 A 
ATOM     11  C   UNL     1      -0.413   3.696 -25.780  0.00  0.00    +0.093 A 
ATOM     12  C   UNL     1      -1.698   3.781 -25.603  0.00  0.00    +0.022 A 
ATOM     13  O   UNL     1       1.645   3.280 -24.966  0.00  0.00    -0.245 OA
ATOM     14  C   UNL     1      -2.211   3.534 -24.433  0.00  0.00    +0.064 A 
ENDROOT
BRANCH   1  16
ATOM     15  C   UNL     1      -4.694   3.040 -26.072  0.00  0.00    +0.277 C 
ATOM     16  O   UNL     1      -4.269   3.950 -25.247  0.00  0.00    -0.494 OA
ENDBRANCH   1  16
BRANCH   7  17
ATOM     17  O   UNL     1      -1.176   2.626 -21.283  0.00  0.00    -0.482 OA
BRANCH  17  18
ATOM     18  C   UNL     1      -0.530   1.498 -21.310  0.00  0.00    +0.263 C 
BRANCH  18  19
ATOM     19  C   UNL     1       0.667   1.420 -20.805  0.00  0.00    +0.188 C 
ATOM     20  O   UNL     1       1.457   1.458 -19.772  0.00  0.00    -0.362 OA
ATOM     21  C   UNL     1       1.943   1.248 -20.962  0.00  0.00    +0.094 C 
ATOM     22  C   UNL     1       1.992   1.077 -22.249  0.00  0.00    +0.044 C 
ATOM     23  C   UNL     1       3.206   1.135 -20.671  0.00  0.00    +0.044 C 
ENDBRANCH  18  19
ENDBRANCH  17  18
ENDBRANCH   7  17
TORSDOF 4
ENDMDL
MODEL 6
REMARK VINA RESULT:    -8.239      1.571      4.197
REMARK INTER + INTRA:         -10.171
REMARK INTER:                 -10.393
REMARK INTRA:                   0.222
REMARK UNBOUND:                -0.005
REMARK  Name = ZINC000013380841
REMARK  7 active torsions:
REMARK  status: ('A' for Active; 'I' for Inactive)
REMARK    1  A    between atoms: C_1  and  O_2
REMARK    2  A    between atoms: O_2  and  C_3
REMARK    3  A    between atoms: C_9  and  O_10
REMARK    4  A    between atoms: O_10  and  C_11
REMARK    5  A    between atoms: C_11  and  C_12
REMARK    6  A    between atoms: C_14  and  C_15
REMARK    7  A    between atoms: C_14  and  C_16
REMARK                            x       y       z     vdW  Elec       q    Type
REMARK                         _______ _______ _______ _____ _____    ______ ____
ROOT
ATOM      1  C   UNL     1       0.676   2.867 -24.217  0.00  0.00    +0.142 A 
ATOM      2  C   UNL     1      -0.578   2.998 -24.537  0.00  0.00    +0.066 A 
ATOM      3  C   UNL     1      -1.161   3.400 -25.628  0.00  0.00    +0.053 A 
ATOM      4  C   UNL     1      -2.447   3.348 -25.443  0.00  0.00    +0.196 A 
ATOM      5  O   UNL     1      -2.658   2.913 -24.236  0.00  0.00    -0.459 OA
ATOM      6  C   UNL     1      -1.505   2.697 -23.678  0.00  0.00    +0.183 A 
ATOM      7  C   UNL     1      -1.177   2.265 -22.497  0.00  0.00    +0.207 A 
ATOM      8  C   UNL     1       0.075   2.133 -22.174  0.00  0.00    +0.188 A 
ATOM      9  O   UNL     1       0.400   1.701 -20.993  0.00  0.00    -0.418 OA
ATOM     10  C   UNL     1       1.653   1.568 -20.669  0.00  0.00    +0.337 A 
ATOM     11  C   UNL     1       2.579   1.870 -21.531  0.00  0.00    +0.093 A 
ATOM     12  C   UNL     1       2.254   2.303 -22.713  0.00  0.00    +0.022 A 
ATOM     13  O   UNL     1       1.977   1.136 -19.489  0.00  0.00    -0.245 OA
ATOM     14  C   UNL     1       1.001   2.434 -23.035  0.00  0.00    +0.064 A 
ENDROOT
BRANCH   1  16
ATOM     15  C   UNL     1       2.066   2.256 -25.878  0.00  0.00    +0.277 C 
ATOM     16  O   UNL     1       1.601   3.168 -25.077  0.00  0.00    -0.494 OA
ENDBRANCH   1  16
BRANCH   7  17
ATOM     17  O   UNL     1      -2.104   1.963 -21.635  0.00  0.00    -0.482 OA
BRANCH  17  18
ATOM     18  C   UNL     1      -2.945   2.872 -21.237  0.00  0.00    +0.263 C 
BRANCH  18  19
ATOM     19  C   UNL     1      -4.218   2.605 -21.186  0.00  0.00    +0.188 C 
ATOM     20  O   UNL     1      -5.210   1.954 -20.652  0.00  0.00    -0.362 OA
ATOM     21  C   UNL     1      -5.423   2.790 -21.627  0.00  0.00    +0.094 C 
ATOM     22  C   UNL     1      -5.191   3.665 -22.559  0.00  0.00    +0.044 C 
ATOM     23  C   UNL     1      -6.713   2.672 -21.745  0.00  0.00    +0.044 C 
ENDBRANCH  18  19
ENDBRANCH  17  18
ENDBRANCH   7  17
TORSDOF 4
ENDMDL
MODEL 7
REMARK VINA RESULT:    -7.761      0.795      3.711
REMARK INTER + INTRA:          -9.581
REMARK INTER:                  -9.815
REMARK INTRA:                   0.233
REMARK UNBOUND:                -0.005
REMARK  Name = ZINC000013380841
REMARK  7 active torsions:
REMARK  status: ('A' for Active; 'I' for Inactive)
REMARK    1  A    between atoms: C_1  and  O_2
REMARK    2  A    between atoms: O_2  and  C_3
REMARK    3  A    between atoms: C_9  and  O_10
REMARK    4  A    between atoms: O_10  and  C_11
REMARK    5  A    between atoms: C_11  and  C_12
REMARK    6  A    between atoms: C_14  and  C_15
REMARK    7  A    between atoms: C_14  and  C_16
REMARK                            x       y       z     vdW  Elec       q    Type
REMARK                         _______ _______ _______ _____ _____    ______ ____
ROOT
ATOM      1  C   UNL     1       3.150   3.517 -23.274  0.00  0.00    +0.142 A 
ATOM      2  C   UNL     1       1.964   3.759 -23.748  0.00  0.00    +0.066 A 
ATOM      3  C   UNL     1       1.528   4.647 -24.593  0.00  0.00    +0.053 A 
ATOM      4  C   UNL     1       0.248   4.473 -24.740  0.00  0.00    +0.196 A 
ATOM      5  O   UNL     1      -0.107   3.476 -23.986  0.00  0.00    -0.459 OA
ATOM      6  C   UNL     1       0.951   3.035 -23.374  0.00  0.00    +0.183 A 
ATOM      7  C   UNL     1       1.126   2.069 -22.524  0.00  0.00    +0.207 A 
ATOM      8  C   UNL     1       2.311   1.824 -22.047  0.00  0.00    +0.188 A 
ATOM      9  O   UNL     1       2.482   0.857 -21.197  0.00  0.00    -0.418 OA
ATOM     10  C   UNL     1       3.668   0.612 -20.720  0.00  0.00    +0.337 A 
ATOM     11  C   UNL     1       4.679   1.337 -21.096  0.00  0.00    +0.093 A 
ATOM     12  C   UNL     1       4.508   2.305 -21.947  0.00  0.00    +0.022 A 
ATOM     13  O   UNL     1       3.839  -0.355 -19.870  0.00  0.00    -0.245 OA
ATOM     14  C   UNL     1       3.322   2.549 -22.423  0.00  0.00    +0.064 A 
ENDROOT
BRANCH   1  16
ATOM     15  C   UNL     1       4.554   5.239 -22.915  0.00  0.00    +0.277 C 
ATOM     16  O   UNL     1       4.161   4.241 -23.649  0.00  0.00    -0.494 OA
ENDBRANCH   1  16
BRANCH   7  17
ATOM     17  O   UNL     1       0.114   1.343 -22.147  0.00  0.00    -0.482 OA
BRANCH  17  18
ATOM     18  C   UNL     1      -0.742   1.814 -21.288  0.00  0.00    +0.263 C 
BRANCH  18  19
ATOM     19  C   UNL     1      -1.911   2.221 -21.689  0.00  0.00    +0.188 C 
ATOM     20  O   UNL     1      -2.838   2.257 -22.601  0.00  0.00    -0.362 OA
ATOM     21  C   UNL     1      -3.003   2.888 -21.474  0.00  0.00    +0.094 C 
ATOM     22  C   UNL     1      -2.760   3.341 -20.280  0.00  0.00    +0.044 C 
ATOM     23  C   UNL     1      -4.182   3.399 -21.674  0.00  0.00    +0.044 C 
ENDBRANCH  18  19
ENDBRANCH  17  18
ENDBRANCH   7  17
TORSDOF 4
ENDMDL
MODEL 8
REMARK VINA RESULT:    -7.676      1.560      5.137
REMARK INTER + INTRA:          -9.477
REMARK INTER:                  -9.545
REMARK INTRA:                   0.069
REMARK UNBOUND:                -0.005
REMARK  Name = ZINC000013380841
REMARK  7 active torsions:
REMARK  status: ('A' for Active; 'I' for Inactive)
REMARK    1  A    between atoms: C_1  and  O_2
REMARK    2  A    between atoms: O_2  and  C_3
REMARK    3  A    between atoms: C_9  and  O_10
REMARK    4  A    between atoms: O_10  and  C_11
REMARK    5  A    between atoms: C_11  and  C_12
REMARK    6  A    between atoms: C_14  and  C_15
REMARK    7  A    between atoms: C_14  and  C_16
REMARK                            x       y       z     vdW  Elec       q    Type
REMARK                         _______ _______ _______ _____ _____    ______ ____
ROOT
ATOM      1  C   UNL     1      -1.654   3.978 -23.569  0.00  0.00    +0.142 A 
ATOM      2  C   UNL     1      -2.018   3.548 -22.397  0.00  0.00    +0.066 A 
ATOM      3  C   UNL     1      -3.010   3.869 -21.620  0.00  0.00    +0.053 A 
ATOM      4  C   UNL     1      -2.934   3.143 -20.544  0.00  0.00    +0.196 A 
ATOM      5  O   UNL     1      -1.894   2.372 -20.657  0.00  0.00    -0.459 OA
ATOM      6  C   UNL     1      -1.328   2.622 -21.800  0.00  0.00    +0.183 A 
ATOM      7  C   UNL     1      -0.275   2.126 -22.377  0.00  0.00    +0.207 A 
ATOM      8  C   UNL     1       0.091   2.555 -23.548  0.00  0.00    +0.188 A 
ATOM      9  O   UNL     1       1.145   2.058 -24.122  0.00  0.00    -0.418 OA
ATOM     10  C   UNL     1       1.511   2.487 -25.295  0.00  0.00    +0.337 A 
ATOM     11  C   UNL     1       0.820   3.413 -25.890  0.00  0.00    +0.093 A 
ATOM     12  C   UNL     1      -0.234   3.911 -25.316  0.00  0.00    +0.022 A 
ATOM     13  O   UNL     1       2.565   1.990 -25.869  0.00  0.00    -0.245 OA
ATOM     14  C   UNL     1      -0.600   3.481 -24.144  0.00  0.00    +0.064 A 
ENDROOT
BRANCH   1  16
ATOM     15  C   UNL     1      -3.414   4.590 -24.833  0.00  0.00    +0.277 C 
ATOM     16  O   UNL     1      -2.345   4.904 -24.164  0.00  0.00    -0.494 OA
ENDBRANCH   1  16
BRANCH   7  17
ATOM     17  O   UNL     1       0.417   1.199 -21.781  0.00  0.00    -0.482 OA
BRANCH  17  18
ATOM     18  C   UNL     1       1.294   1.521 -20.876  0.00  0.00    +0.263 C 
BRANCH  18  19
ATOM     19  C   UNL     1       2.493   1.883 -21.230  0.00  0.00    +0.188 C 
ATOM     20  O   UNL     1       3.298   2.781 -21.720  0.00  0.00    -0.362 OA
ATOM     21  C   UNL     1       3.756   1.618 -21.354  0.00  0.00    +0.094 C 
ATOM     22  C   UNL     1       3.779   0.404 -20.891  0.00  0.00    +0.044 C 
ATOM     23  C   UNL     1       5.016   1.774 -21.640  0.00  0.00    +0.044 C 
ENDBRANCH  18  19
ENDBRANCH  17  18
ENDBRANCH   7  17
TORSDOF 4
ENDMDL
MODEL 9
REMARK VINA RESULT:    -7.432      2.305      4.065
REMARK INTER + INTRA:          -9.176
REMARK INTER:                  -9.170
REMARK INTRA:                  -0.005
REMARK UNBOUND:                -0.005
REMARK  Name = ZINC000013380841
REMARK  7 active torsions:
REMARK  status: ('A' for Active; 'I' for Inactive)
REMARK    1  A    between atoms: C_1  and  O_2
REMARK    2  A    between atoms: O_2  and  C_3
REMARK    3  A    between atoms: C_9  and  O_10
REMARK    4  A    between atoms: O_10  and  C_11
REMARK    5  A    between atoms: C_11  and  C_12
REMARK    6  A    between atoms: C_14  and  C_15
REMARK    7  A    between atoms: C_14  and  C_16
REMARK                            x       y       z     vdW  Elec       q    Type
REMARK                         _______ _______ _______ _____ _____    ______ ____
ROOT
ATOM      1  C   UNL     1       4.664   3.531 -23.392  0.00  0.00    +0.142 A 
ATOM      2  C   UNL     1       3.661   2.891 -23.916  0.00  0.00    +0.066 A 
ATOM      3  C   UNL     1       3.553   1.689 -24.401  0.00  0.00    +0.053 A 
ATOM      4  C   UNL     1       2.329   1.524 -24.806  0.00  0.00    +0.196 A 
ATOM      5  O   UNL     1       1.680   2.625 -24.570  0.00  0.00    -0.459 OA
ATOM      6  C   UNL     1       2.502   3.469 -24.021  0.00  0.00    +0.183 A 
ATOM      7  C   UNL     1       2.347   4.689 -23.602  0.00  0.00    +0.207 A 
ATOM      8  C   UNL     1       3.348   5.332 -23.079  0.00  0.00    +0.188 A 
ATOM      9  O   UNL     1       3.190   6.551 -22.661  0.00  0.00    -0.418 OA
ATOM     10  C   UNL     1       4.191   7.195 -22.137  0.00  0.00    +0.337 A 
ATOM     11  C   UNL     1       5.350   6.615 -22.033  0.00  0.00    +0.093 A 
ATOM     12  C   UNL     1       5.509   5.395 -22.450  0.00  0.00    +0.022 A 
ATOM     13  O   UNL     1       4.033   8.415 -21.719  0.00  0.00    -0.245 OA
ATOM     14  C   UNL     1       4.506   4.752 -22.974  0.00  0.00    +0.064 A 
ENDROOT
BRANCH   1  16
ATOM     15  C   UNL     1       6.075   2.181 -22.273  0.00  0.00    +0.277 C 
ATOM     16  O   UNL     1       5.822   2.952 -23.288  0.00  0.00    -0.494 OA
ENDBRANCH   1  16
BRANCH   7  17
ATOM     17  O   UNL     1       1.187   5.269 -23.707  0.00  0.00    -0.482 OA
BRANCH  17  18
ATOM     18  C   UNL     1       0.225   4.954 -22.890  0.00  0.00    +0.263 C 
BRANCH  18  19
ATOM     19  C   UNL     1      -0.929   4.574 -23.358  0.00  0.00    +0.188 C 
ATOM     20  O   UNL     1      -1.734   4.406 -24.366  0.00  0.00    -0.362 OA
ATOM     21  C   UNL     1      -2.114   4.085 -23.163  0.00  0.00    +0.094 C 
ATOM     22  C   UNL     1      -2.079   3.914 -21.874  0.00  0.00    +0.044 C 
ATOM     23  C   UNL     1      -3.316   3.655 -23.415  0.00  0.00    +0.044 C 
ENDBRANCH  18  19
ENDBRANCH  17  18
ENDBRANCH   7  17
TORSDOF 4
ENDMDL
