MODEL 1
REMARK VINA RESULT:   -10.018      0.000      0.000
REMARK INTER + INTRA:         -11.335
REMARK INTER:                 -11.213
REMARK INTRA:                  -0.122
REMARK UNBOUND:                -0.145
REMARK  Name = COc1ccc2c(c1O)[C@@]13CCN(C)[C@@H](C2)[C@@H]1C(Br)=CC=C3C             ZINC000253504282
REMARK  5 active torsions:
REMARK  status: ('A' for Active; 'I' for Inactive)
REMARK    1  A    between atoms: C_1  and  O_2
REMARK    2  A    between atoms: O_2  and  C_3
REMARK    3  A    between atoms: C_8  and  O_9
REMARK    4  A    between atoms: N_13  and  C_14
REMARK    5  A    between atoms: C_22  and  C_23
REMARK                            x       y       z     vdW  Elec       q    Type
REMARK                         _______ _______ _______ _____ _____    ______ ____
ROOT
ATOM      1  C   UNL     1      -4.906   3.458 -22.892  0.00  0.00    +0.162 A 
ATOM      2  C   UNL     1      -5.198   3.789 -24.084  0.00  0.00    +0.049 A 
ATOM      3  C   UNL     1      -4.270   3.795 -24.954  0.00  0.00    +0.008 A 
ATOM      4  C   UNL     1      -2.898   3.420 -24.551  0.00  0.00    -0.034 A 
ATOM      5  C   UNL     1      -2.735   3.154 -23.527  0.00  0.00    +0.012 A 
ATOM      6  C   UNL     1      -1.940   2.884 -23.059  0.00  0.00    +0.038 C 
ATOM      7  C   UNL     1      -3.443   3.339 -23.699  0.00  0.00    +0.067 C 
ATOM      8  C   UNL     1      -3.544   3.686 -25.134  0.00  0.00    +0.132 C 
ATOM      9  N   UNL     1      -2.579   3.641 -25.810  0.00  0.00    +0.236 N 
ATOM     10  H   UNL     1      -1.617   3.513 -26.122  0.00  0.00    +0.203 HD
ATOM     11  C   UNL     1      -1.153   3.215 -25.234  0.00  0.00    +0.078 C 
ATOM     12  C   UNL     1      -3.315   4.028 -26.848  0.00  0.00    +0.190 C 
ATOM     13  C   UNL     1      -1.734   2.566 -21.850  0.00  0.00    -0.061 C 
ATOM     14  C   UNL     1      -2.647   2.560 -20.994  0.00  0.00    +0.040 C 
ATOM     15  C   UNL     1      -0.534   2.231 -21.464  0.00  0.00    +0.001 C 
ATOM     16  C   UNL     1       0.475   2.217 -22.319  0.00  0.00    +0.011 C 
ATOM     17  C   UNL     1       0.308   2.536 -23.570  0.00  0.00    +0.005 C 
ATOM     18 BR   UNL     1       1.300   2.519 -24.396  0.00  0.00    -0.054 Br
ATOM     19  C   UNL     1      -0.841   2.867 -23.983  0.00  0.00    +0.090 C 
ATOM     20  C   UNL     1      -1.976   3.428 -25.425  0.00  0.00    +0.090 C 
ATOM     21  C   UNL     1      -3.684   3.139 -22.600  0.00  0.00    +0.163 A 
ENDROOT
BRANCH   1  23
ATOM     22  C   UNL     1      -6.818   2.703 -21.702  0.00  0.00    +0.277 C 
ATOM     23  O   UNL     1      -5.748   3.382 -21.797  0.00  0.00    -0.491 OA
ENDBRANCH   1  23
BRANCH  21  24
ATOM     24  O   UNL     1      -3.419   2.811 -21.396  0.00  0.00    -0.503 OA
ATOM     25  H   UNL     1      -2.859   3.352 -20.875  0.00  0.00    +0.292 HD
ENDBRANCH  21  24
TORSDOF 2
ENDMDL
MODEL 2
REMARK VINA RESULT:    -9.870      2.208      4.077
REMARK INTER + INTRA:         -11.169
REMARK INTER:                 -11.022
REMARK INTRA:                  -0.147
REMARK UNBOUND:                -0.145
REMARK  Name = COc1ccc2c(c1O)[C@@]13CCN(C)[C@@H](C2)[C@@H]1C(Br)=CC=C3C             ZINC000253504282
REMARK  5 active torsions:
REMARK  status: ('A' for Active; 'I' for Inactive)
REMARK    1  A    between atoms: C_1  and  O_2
REMARK    2  A    between atoms: O_2  and  C_3
REMARK    3  A    between atoms: C_8  and  O_9
REMARK    4  A    between atoms: N_13  and  C_14
REMARK    5  A    between atoms: C_22  and  C_23
REMARK                            x       y       z     vdW  Elec       q    Type
REMARK                         _______ _______ _______ _____ _____    ______ ____
ROOT
ATOM      1  C   UNL     1       0.146   3.023 -24.308  0.00  0.00    +0.162 A 
ATOM      2  C   UNL     1      -0.205   3.321 -25.492  0.00  0.00    +0.049 A 
ATOM      3  C   UNL     1      -1.441   3.507 -25.728  0.00  0.00    +0.008 A 
ATOM      4  C   UNL     1      -2.416   3.370 -24.626  0.00  0.00    -0.034 A 
ATOM      5  C   UNL     1      -2.039   3.116 -23.656  0.00  0.00    +0.012 A 
ATOM      6  C   UNL     1      -2.486   2.980 -22.816  0.00  0.00    +0.038 C 
ATOM      7  C   UNL     1      -1.518   3.178 -24.194  0.00  0.00    +0.067 C 
ATOM      8  C   UNL     1      -2.156   3.530 -25.482  0.00  0.00    +0.132 C 
ATOM      9  N   UNL     1      -3.326   3.668 -25.531  0.00  0.00    +0.236 N 
ATOM     10  H   UNL     1      -4.310   3.716 -25.268  0.00  0.00    +0.203 HD
ATOM     11  C   UNL     1      -4.260   3.487 -24.250  0.00  0.00    +0.078 C 
ATOM     12  C   UNL     1      -3.217   3.941 -26.828  0.00  0.00    +0.190 C 
ATOM     13  C   UNL     1      -2.054   2.680 -21.664  0.00  0.00    -0.061 C 
ATOM     14  C   UNL     1      -0.837   2.497 -21.431  0.00  0.00    +0.040 C 
ATOM     15  C   UNL     1      -2.890   2.552 -20.671  0.00  0.00    +0.001 C 
ATOM     16  C   UNL     1      -4.187   2.731 -20.849  0.00  0.00    +0.011 C 
ATOM     17  C   UNL     1      -4.676   3.041 -22.015  0.00  0.00    +0.005 C 
ATOM     18 BR   UNL     1      -5.944   3.214 -22.177  0.00  0.00    -0.054 Br
ATOM     19  C   UNL     1      -3.897   3.174 -23.003  0.00  0.00    +0.090 C 
ATOM     20  C   UNL     1      -3.649   3.557 -24.867  0.00  0.00    +0.090 C 
ATOM     21  C   UNL     1      -0.756   2.917 -23.383  0.00  0.00    +0.163 A 
ENDROOT
BRANCH   1  23
ATOM     22  C   UNL     1       2.373   2.212 -24.453  0.00  0.00    +0.277 C 
ATOM     23  O   UNL     1       1.421   2.780 -23.831  0.00  0.00    -0.491 OA
ENDBRANCH   1  23
BRANCH  21  24
ATOM     24  O   UNL     1      -0.376   2.617 -22.203  0.00  0.00    -0.503 OA
ATOM     25  H   UNL     1       0.528   2.434 -22.033  0.00  0.00    +0.292 HD
ENDBRANCH  21  24
TORSDOF 2
ENDMDL
MODEL 3
REMARK VINA RESULT:    -9.553      2.300      3.857
REMARK INTER + INTRA:         -10.815
REMARK INTER:                 -10.670
REMARK INTRA:                  -0.145
REMARK UNBOUND:                -0.145
REMARK  Name = COc1ccc2c(c1O)[C@@]13CCN(C)[C@@H](C2)[C@@H]1C(Br)=CC=C3C             ZINC000253504282
REMARK  5 active torsions:
REMARK  status: ('A' for Active; 'I' for Inactive)
REMARK    1  A    between atoms: C_1  and  O_2
REMARK    2  A    between atoms: O_2  and  C_3
REMARK    3  A    between atoms: C_8  and  O_9
REMARK    4  A    between atoms: N_13  and  C_14
REMARK    5  A    between atoms: C_22  and  C_23
REMARK                            x       y       z     vdW  Elec       q    Type
REMARK                         _______ _______ _______ _____ _____    ______ ____
ROOT
ATOM      1  C   UNL     1      -2.378   3.390 -25.124  0.00  0.00    +0.162 A 
ATOM      2  C   UNL     1      -3.325   3.262 -24.287  0.00  0.00    +0.049 A 
ATOM      3  C   UNL     1      -3.043   2.871 -23.110  0.00  0.00    +0.008 A 
ATOM      4  C   UNL     1      -1.636   2.581 -22.762  0.00  0.00    -0.034 A 
ATOM      5  C   UNL     1      -0.897   2.714 -23.525  0.00  0.00    +0.012 A 
ATOM      6  C   UNL     1       0.056   2.586 -23.516  0.00  0.00    +0.038 C 
ATOM      7  C   UNL     1      -1.602   2.869 -23.734  0.00  0.00    +0.067 C 
ATOM      8  C   UNL     1      -2.528   2.650 -22.602  0.00  0.00    +0.132 C 
ATOM      9  N   UNL     1      -2.101   2.283 -21.566  0.00  0.00    +0.236 N 
ATOM     10  H   UNL     1      -1.463   1.978 -20.832  0.00  0.00    +0.203 HD
ATOM     11  C   UNL     1      -0.547   2.009 -21.334  0.00  0.00    +0.078 C 
ATOM     12  C   UNL     1      -3.338   2.297 -21.076  0.00  0.00    +0.190 C 
ATOM     13  C   UNL     1       0.941   2.739 -24.410  0.00  0.00    -0.061 C 
ATOM     14  C   UNL     1       0.663   3.124 -25.568  0.00  0.00    +0.040 C 
ATOM     15  C   UNL     1       2.191   2.492 -24.133  0.00  0.00    +0.001 C 
ATOM     16  C   UNL     1       2.551   2.082 -22.929  0.00  0.00    +0.011 C 
ATOM     17  C   UNL     1       1.675   1.912 -21.980  0.00  0.00    +0.005 C 
ATOM     18 BR   UNL     1       2.038   1.512 -20.808  0.00  0.00    -0.054 Br
ATOM     19  C   UNL     1       0.453   2.141 -22.210  0.00  0.00    +0.090 C 
ATOM     20  C   UNL     1      -1.361   2.191 -21.585  0.00  0.00    +0.090 C 
ATOM     21  C   UNL     1      -1.163   3.121 -24.759  0.00  0.00    +0.163 A 
ENDROOT
BRANCH   1  23
ATOM     22  C   UNL     1      -3.344   3.473 -27.293  0.00  0.00    +0.277 C 
ATOM     23  O   UNL     1      -2.454   3.797 -26.444  0.00  0.00    -0.491 OA
ENDBRANCH   1  23
BRANCH  21  24
ATOM     24  O   UNL     1      -0.232   3.257 -25.620  0.00  0.00    -0.503 OA
ATOM     25  H   UNL     1       0.263   4.053 -25.653  0.00  0.00    +0.292 HD
ENDBRANCH  21  24
TORSDOF 2
ENDMDL
MODEL 4
REMARK VINA RESULT:    -9.503      1.930      4.171
REMARK INTER + INTRA:         -10.759
REMARK INTER:                 -10.615
REMARK INTRA:                  -0.144
REMARK UNBOUND:                -0.145
REMARK  Name = COc1ccc2c(c1O)[C@@]13CCN(C)[C@@H](C2)[C@@H]1C(Br)=CC=C3C             ZINC000253504282
REMARK  5 active torsions:
REMARK  status: ('A' for Active; 'I' for Inactive)
REMARK    1  A    between atoms: C_1  and  O_2
REMARK    2  A    between atoms: O_2  and  C_3
REMARK    3  A    between atoms: C_8  and  O_9
REMARK    4  A    between atoms: N_13  and  C_14
REMARK    5  A    between atoms: C_22  and  C_23
REMARK                            x       y       z     vdW  Elec       q    Type
REMARK                         _______ _______ _______ _____ _____    ______ ____
ROOT
ATOM      1  C   UNL     1       0.260   2.061 -21.932  0.00  0.00    +0.162 A 
ATOM      2  C   UNL     1       1.042   2.326 -22.897  0.00  0.00    +0.049 A 
ATOM      3  C   UNL     1       0.555   2.870 -23.939  0.00  0.00    +0.008 A 
ATOM      4  C   UNL     1      -0.890   3.173 -23.987  0.00  0.00    -0.034 A 
ATOM      5  C   UNL     1      -1.481   2.919 -23.131  0.00  0.00    +0.012 A 
ATOM      6  C   UNL     1      -2.420   3.025 -22.953  0.00  0.00    +0.038 C 
ATOM      7  C   UNL     1      -0.751   2.752 -23.075  0.00  0.00    +0.067 C 
ATOM      8  C   UNL     1      -0.041   3.148 -24.311  0.00  0.00    +0.132 C 
ATOM      9  N   UNL     1      -0.646   3.646 -25.192  0.00  0.00    +0.236 N 
ATOM     10  H   UNL     1      -1.405   4.035 -25.751  0.00  0.00    +0.203 HD
ATOM     11  C   UNL     1      -2.216   3.914 -25.104  0.00  0.00    +0.078 C 
ATOM     12  C   UNL     1       0.483   3.728 -25.891  0.00  0.00    +0.190 C 
ATOM     13  C   UNL     1      -3.131   2.729 -21.947  0.00  0.00    -0.061 C 
ATOM     14  C   UNL     1      -2.652   2.193 -20.922  0.00  0.00    +0.040 C 
ATOM     15  C   UNL     1      -4.410   2.984 -21.960  0.00  0.00    +0.001 C 
ATOM     16  C   UNL     1      -4.979   3.549 -23.011  0.00  0.00    +0.011 C 
ATOM     17  C   UNL     1      -4.286   3.870 -24.066  0.00  0.00    +0.005 C 
ATOM     18 BR   UNL     1      -4.852   4.421 -25.087  0.00  0.00    -0.054 Br
ATOM     19  C   UNL     1      -3.043   3.638 -24.092  0.00  0.00    +0.090 C 
ATOM     20  C   UNL     1      -1.371   3.717 -25.030  0.00  0.00    +0.090 C 
ATOM     21  C   UNL     1      -0.999   2.351 -22.034  0.00  0.00    +0.163 A 
ENDROOT
BRANCH   1  23
ATOM     22  C   UNL     1       1.707   1.455 -20.148  0.00  0.00    +0.277 C 
ATOM     23  O   UNL     1       0.571   1.476 -20.718  0.00  0.00    -0.491 OA
ENDBRANCH   1  23
BRANCH  21  24
ATOM     24  O   UNL     1      -1.762   2.075 -21.049  0.00  0.00    -0.503 OA
ATOM     25  H   UNL     1      -2.179   2.765 -20.571  0.00  0.00    +0.292 HD
ENDBRANCH  21  24
TORSDOF 2
ENDMDL
MODEL 5
REMARK VINA RESULT:    -9.386      2.518      4.912
REMARK INTER + INTRA:         -10.629
REMARK INTER:                 -10.483
REMARK INTRA:                  -0.146
REMARK UNBOUND:                -0.145
REMARK  Name = COc1ccc2c(c1O)[C@@]13CCN(C)[C@@H](C2)[C@@H]1C(Br)=CC=C3C             ZINC000253504282
REMARK  5 active torsions:
REMARK  status: ('A' for Active; 'I' for Inactive)
REMARK    1  A    between atoms: C_1  and  O_2
REMARK    2  A    between atoms: O_2  and  C_3
REMARK    3  A    between atoms: C_8  and  O_9
REMARK    4  A    between atoms: N_13  and  C_14
REMARK    5  A    between atoms: C_22  and  C_23
REMARK                            x       y       z     vdW  Elec       q    Type
REMARK                         _______ _______ _______ _____ _____    ______ ____
ROOT
ATOM      1  C   UNL     1       0.003   2.246 -22.335  0.00  0.00    +0.162 A 
ATOM      2  C   UNL     1      -0.532   2.130 -21.189  0.00  0.00    +0.049 A 
ATOM      3  C   UNL     1      -1.770   2.394 -21.069  0.00  0.00    +0.008 A 
ATOM      4  C   UNL     1      -2.536   2.823 -22.258  0.00  0.00    -0.034 A 
ATOM      5  C   UNL     1      -2.012   2.896 -23.188  0.00  0.00    +0.012 A 
ATOM      6  C   UNL     1      -2.308   3.150 -24.067  0.00  0.00    +0.038 C 
ATOM      7  C   UNL     1      -1.594   2.676 -22.604  0.00  0.00    +0.067 C 
ATOM      8  C   UNL     1      -2.423   2.612 -21.380  0.00  0.00    +0.132 C 
ATOM      9  N   UNL     1      -3.567   2.892 -21.441  0.00  0.00    +0.236 N 
ATOM     10  H   UNL     1      -4.479   3.180 -21.794  0.00  0.00    +0.203 HD
ATOM     11  C   UNL     1      -4.264   3.342 -22.803  0.00  0.00    +0.078 C 
ATOM     12  C   UNL     1      -3.674   2.643 -20.139  0.00  0.00    +0.190 C 
ATOM     13  C   UNL     1      -1.699   3.241 -25.174  0.00  0.00    -0.061 C 
ATOM     14  C   UNL     1      -0.480   2.981 -25.292  0.00  0.00    +0.040 C 
ATOM     15  C   UNL     1      -2.348   3.617 -26.241  0.00  0.00    +0.001 C 
ATOM     16  C   UNL     1      -3.637   3.907 -26.185  0.00  0.00    +0.011 C 
ATOM     17  C   UNL     1      -4.302   3.827 -25.068  0.00  0.00    +0.005 C 
ATOM     18 BR   UNL     1      -5.559   4.112 -25.025  0.00  0.00    -0.054 Br
ATOM     19  C   UNL     1      -3.708   3.466 -24.012  0.00  0.00    +0.090 C 
ATOM     20  C   UNL     1      -3.773   3.086 -22.132  0.00  0.00    +0.090 C 
ATOM     21  C   UNL     1      -0.721   2.627 -23.341  0.00  0.00    +0.163 A 
ENDROOT
BRANCH   1  23
ATOM     22  C   UNL     1       2.120   1.186 -22.153  0.00  0.00    +0.277 C 
ATOM     23  O   UNL     1       1.319   2.013 -22.691  0.00  0.00    -0.491 OA
ENDBRANCH   1  23
BRANCH  21  24
ATOM     24  O   UNL     1      -0.159   2.735 -24.480  0.00  0.00    -0.503 OA
ATOM     25  H   UNL     1      -0.603   3.170 -25.183  0.00  0.00    +0.292 HD
ENDBRANCH  21  24
TORSDOF 2
ENDMDL
MODEL 6
REMARK VINA RESULT:    -9.030      2.607      5.253
REMARK INTER + INTRA:         -10.231
REMARK INTER:                 -10.093
REMARK INTRA:                  -0.138
REMARK UNBOUND:                -0.145
REMARK  Name = COc1ccc2c(c1O)[C@@]13CCN(C)[C@@H](C2)[C@@H]1C(Br)=CC=C3C             ZINC000253504282
REMARK  5 active torsions:
REMARK  status: ('A' for Active; 'I' for Inactive)
REMARK    1  A    between atoms: C_1  and  O_2
REMARK    2  A    between atoms: O_2  and  C_3
REMARK    3  A    between atoms: C_8  and  O_9
REMARK    4  A    between atoms: N_13  and  C_14
REMARK    5  A    between atoms: C_22  and  C_23
REMARK                            x       y       z     vdW  Elec       q    Type
REMARK                         _______ _______ _______ _____ _____    ______ ____
ROOT
ATOM      1  C   UNL     1       0.491   2.682 -24.508  0.00  0.00    +0.162 A 
ATOM      2  C   UNL     1       0.947   2.288 -23.390  0.00  0.00    +0.049 A 
ATOM      3  C   UNL     1       0.144   2.197 -22.407  0.00  0.00    +0.008 A 
ATOM      4  C   UNL     1      -1.278   2.551 -22.600  0.00  0.00    -0.034 A 
ATOM      5  C   UNL     1      -1.582   2.874 -23.574  0.00  0.00    +0.012 A 
ATOM      6  C   UNL     1      -2.439   3.147 -23.914  0.00  0.00    +0.038 C 
ATOM      7  C   UNL     1      -0.854   2.702 -23.510  0.00  0.00    +0.067 C 
ATOM      8  C   UNL     1      -0.554   2.271 -22.127  0.00  0.00    +0.132 C 
ATOM      9  N   UNL     1      -1.420   2.242 -21.328  0.00  0.00    +0.236 N 
ATOM     10  H   UNL     1      -2.335   2.319 -20.884  0.00  0.00    +0.203 HD
ATOM     11  C   UNL     1      -2.920   2.655 -21.681  0.00  0.00    +0.078 C 
ATOM     12  C   UNL     1      -0.543   1.816 -20.424  0.00  0.00    +0.190 C 
ATOM     13  C   UNL     1      -2.813   3.532 -25.062  0.00  0.00    -0.061 C 
ATOM     14  C   UNL     1      -2.023   3.621 -26.029  0.00  0.00    +0.040 C 
ATOM     15  C   UNL     1      -4.062   3.851 -25.264  0.00  0.00    +0.001 C 
ATOM     16  C   UNL     1      -4.947   3.778 -24.284  0.00  0.00    +0.011 C 
ATOM     17  C   UNL     1      -4.607   3.388 -23.089  0.00  0.00    +0.005 C 
ATOM     18 BR   UNL     1      -5.479   3.322 -22.141  0.00  0.00    -0.054 Br
ATOM     19  C   UNL     1      -3.405   3.070 -22.855  0.00  0.00    +0.090 C 
ATOM     20  C   UNL     1      -2.075   2.458 -21.615  0.00  0.00    +0.090 C 
ATOM     21  C   UNL     1      -0.766   2.978 -24.615  0.00  0.00    +0.163 A 
ENDROOT
BRANCH   1  23
ATOM     22  C   UNL     1       1.976   2.028 -26.243  0.00  0.00    +0.277 C 
ATOM     23  O   UNL     1       1.176   2.853 -25.697  0.00  0.00    -0.491 OA
ENDBRANCH   1  23
BRANCH  21  24
ATOM     24  O   UNL     1      -1.198   3.371 -25.749  0.00  0.00    -0.503 OA
ATOM     25  H   UNL     1      -1.883   2.898 -26.181  0.00  0.00    +0.292 HD
ENDBRANCH  21  24
TORSDOF 2
ENDMDL
MODEL 7
REMARK VINA RESULT:    -8.481      4.366      7.484
REMARK INTER + INTRA:          -9.618
REMARK INTER:                  -9.476
REMARK INTRA:                  -0.142
REMARK UNBOUND:                -0.145
REMARK  Name = COc1ccc2c(c1O)[C@@]13CCN(C)[C@@H](C2)[C@@H]1C(Br)=CC=C3C             ZINC000253504282
REMARK  5 active torsions:
REMARK  status: ('A' for Active; 'I' for Inactive)
REMARK    1  A    between atoms: C_1  and  O_2
REMARK    2  A    between atoms: O_2  and  C_3
REMARK    3  A    between atoms: C_8  and  O_9
REMARK    4  A    between atoms: N_13  and  C_14
REMARK    5  A    between atoms: C_22  and  C_23
REMARK                            x       y       z     vdW  Elec       q    Type
REMARK                         _______ _______ _______ _____ _____    ______ ____
ROOT
ATOM      1  C   UNL     1       4.983   3.879 -22.770  0.00  0.00    +0.162 A 
ATOM      2  C   UNL     1       5.473   2.865 -22.181  0.00  0.00    +0.049 A 
ATOM      3  C   UNL     1       4.676   1.972 -21.750  0.00  0.00    +0.008 A 
ATOM      4  C   UNL     1       3.221   2.145 -21.946  0.00  0.00    -0.034 A 
ATOM      5  C   UNL     1       2.889   3.029 -22.452  0.00  0.00    +0.012 A 
ATOM      6  C   UNL     1       2.008   3.336 -22.681  0.00  0.00    +0.038 C 
ATOM      7  C   UNL     1       3.633   2.971 -22.368  0.00  0.00    +0.067 C 
ATOM      8  C   UNL     1       3.970   1.717 -21.659  0.00  0.00    +0.132 C 
ATOM      9  N   UNL     1       3.104   0.990 -21.323  0.00  0.00    +0.236 N 
ATOM     10  H   UNL     1       2.181   0.587 -21.168  0.00  0.00    +0.203 HD
ATOM     11  C   UNL     1       1.567   1.309 -21.605  0.00  0.00    +0.078 C 
ATOM     12  C   UNL     1       4.019   0.172 -20.812  0.00  0.00    +0.190 C 
ATOM     13  C   UNL     1       1.600   4.377 -23.278  0.00  0.00    -0.061 C 
ATOM     14  C   UNL     1       2.385   5.255 -23.703  0.00  0.00    +0.040 C 
ATOM     15  C   UNL     1       0.322   4.558 -23.467  0.00  0.00    +0.001 C 
ATOM     16  C   UNL     1      -0.559   3.668 -23.042  0.00  0.00    +0.011 C 
ATOM     17  C   UNL     1      -0.185   2.585 -22.424  0.00  0.00    +0.005 C 
ATOM     18 BR   UNL     1      -1.054   1.723 -22.015  0.00  0.00    -0.054 Br
ATOM     19  C   UNL     1       1.046   2.373 -22.223  0.00  0.00    +0.090 C 
ATOM     20  C   UNL     1       2.431   1.251 -21.513  0.00  0.00    +0.090 C 
ATOM     21  C   UNL     1       3.698   3.974 -22.912  0.00  0.00    +0.163 A 
ENDROOT
BRANCH   1  23
ATOM     22  C   UNL     1       6.909   5.167 -23.290  0.00  0.00    +0.277 C 
ATOM     23  O   UNL     1       5.655   4.959 -23.312  0.00  0.00    -0.491 OA
ENDBRANCH   1  23
BRANCH  21  24
ATOM     24  O   UNL     1       3.233   5.003 -23.506  0.00  0.00    -0.503 OA
ATOM     25  H   UNL     1       3.781   5.500 -24.081  0.00  0.00    +0.292 HD
ENDBRANCH  21  24
TORSDOF 2
ENDMDL
MODEL 8
REMARK VINA RESULT:    -8.416      2.069      3.485
REMARK INTER + INTRA:          -9.545
REMARK INTER:                  -9.405
REMARK INTRA:                  -0.141
REMARK UNBOUND:                -0.145
REMARK  Name = COc1ccc2c(c1O)[C@@]13CCN(C)[C@@H](C2)[C@@H]1C(Br)=CC=C3C             ZINC000253504282
REMARK  5 active torsions:
REMARK  status: ('A' for Active; 'I' for Inactive)
REMARK    1  A    between atoms: C_1  and  O_2
REMARK    2  A    between atoms: O_2  and  C_3
REMARK    3  A    between atoms: C_8  and  O_9
REMARK    4  A    between atoms: N_13  and  C_14
REMARK    5  A    between atoms: C_22  and  C_23
REMARK                            x       y       z     vdW  Elec       q    Type
REMARK                         _______ _______ _______ _____ _____    ______ ____
ROOT
ATOM      1  C   UNL     1      -1.703   2.630 -23.078  0.00  0.00    +0.162 A 
ATOM      2  C   UNL     1      -1.666   3.215 -24.205  0.00  0.00    +0.049 A 
ATOM      3  C   UNL     1      -0.531   3.473 -24.716  0.00  0.00    +0.008 A 
ATOM      4  C   UNL     1       0.695   3.088 -23.987  0.00  0.00    -0.034 A 
ATOM      5  C   UNL     1       0.579   2.598 -23.042  0.00  0.00    +0.012 A 
ATOM      6  C   UNL     1       1.227   2.268 -22.413  0.00  0.00    +0.038 C 
ATOM      7  C   UNL     1      -0.063   2.781 -23.387  0.00  0.00    +0.067 C 
ATOM      8  C   UNL     1       0.224   3.448 -24.676  0.00  0.00    +0.132 C 
ATOM      9  N   UNL     1       1.343   3.612 -25.006  0.00  0.00    +0.236 N 
ATOM     10  H   UNL     1       2.363   3.612 -25.017  0.00  0.00    +0.203 HD
ATOM     11  C   UNL     1       2.576   3.140 -24.110  0.00  0.00    +0.078 C 
ATOM     12  C   UNL     1       0.906   4.193 -26.120  0.00  0.00    +0.190 C 
ATOM     13  C   UNL     1       1.104   1.688 -21.293  0.00  0.00    -0.061 C 
ATOM     14  C   UNL     1      -0.014   1.433 -20.790  0.00  0.00    +0.040 C 
ATOM     15  C   UNL     1       2.167   1.335 -20.626  0.00  0.00    +0.001 C 
ATOM     16  C   UNL     1       3.377   1.574 -21.101  0.00  0.00    +0.011 C 
ATOM     17  C   UNL     1       3.551   2.168 -22.247  0.00  0.00    +0.005 C 
ATOM     18 BR   UNL     1       4.736   2.396 -22.701  0.00  0.00    -0.054 Br
ATOM     19  C   UNL     1       2.544   2.525 -22.924  0.00  0.00    +0.090 C 
ATOM     20  C   UNL     1       1.827   3.348 -24.502  0.00  0.00    +0.090 C 
ATOM     21  C   UNL     1      -0.593   2.317 -22.486  0.00  0.00    +0.163 A 
ENDROOT
BRANCH   1  23
ATOM     22  C   UNL     1      -3.845   2.963 -22.107  0.00  0.00    +0.277 C 
ATOM     23  O   UNL     1      -2.814   2.257 -22.345  0.00  0.00    -0.491 OA
ENDBRANCH   1  23
BRANCH  21  24
ATOM     24  O   UNL     1      -0.658   1.730 -21.355  0.00  0.00    -0.503 OA
ATOM     25  H   UNL     1      -0.041   1.941 -20.681  0.00  0.00    +0.292 HD
ENDBRANCH  21  24
TORSDOF 2
ENDMDL
MODEL 9
REMARK VINA RESULT:    -8.057      3.248      6.229
REMARK INTER + INTRA:          -9.144
REMARK INTER:                  -8.999
REMARK INTRA:                  -0.145
REMARK UNBOUND:                -0.145
REMARK  Name = COc1ccc2c(c1O)[C@@]13CCN(C)[C@@H](C2)[C@@H]1C(Br)=CC=C3C             ZINC000253504282
REMARK  5 active torsions:
REMARK  status: ('A' for Active; 'I' for Inactive)
REMARK    1  A    between atoms: C_1  and  O_2
REMARK    2  A    between atoms: O_2  and  C_3
REMARK    3  A    between atoms: C_8  and  O_9
REMARK    4  A    between atoms: N_13  and  C_14
REMARK    5  A    between atoms: C_22  and  C_23
REMARK                            x       y       z     vdW  Elec       q    Type
REMARK                         _______ _______ _______ _____ _____    ______ ____
ROOT
ATOM      1  C   UNL     1       3.141   2.324 -23.320  0.00  0.00    +0.162 A 
ATOM      2  C   UNL     1       3.146   1.822 -22.153  0.00  0.00    +0.049 A 
ATOM      3  C   UNL     1       2.036   1.687 -21.547  0.00  0.00    +0.008 A 
ATOM      4  C   UNL     1       0.790   2.116 -22.217  0.00  0.00    -0.034 A 
ATOM      5  C   UNL     1       0.871   2.530 -23.201  0.00  0.00    +0.012 A 
ATOM      6  C   UNL     1       0.204   2.865 -23.806  0.00  0.00    +0.038 C 
ATOM      7  C   UNL     1       1.522   2.322 -22.889  0.00  0.00    +0.067 C 
ATOM      8  C   UNL     1       1.284   1.768 -21.538  0.00  0.00    +0.132 C 
ATOM      9  N   UNL     1       0.183   1.712 -21.119  0.00  0.00    +0.236 N 
ATOM     10  H   UNL     1      -0.830   1.792 -21.039  0.00  0.00    +0.203 HD
ATOM     11  C   UNL     1      -1.075   2.217 -21.961  0.00  0.00    +0.078 C 
ATOM     12  C   UNL     1       0.659   1.177 -19.999  0.00  0.00    +0.190 C 
ATOM     13  C   UNL     1       0.285   3.357 -24.971  0.00  0.00    -0.061 C 
ATOM     14  C   UNL     1       1.378   3.490 -25.567  0.00  0.00    +0.040 C 
ATOM     15  C   UNL     1      -0.797   3.745 -25.588  0.00  0.00    +0.001 C 
ATOM     16  C   UNL     1      -1.982   3.632 -25.014  0.00  0.00    +0.011 C 
ATOM     17  C   UNL     1      -2.113   3.133 -23.819  0.00  0.00    +0.005 C 
ATOM     18 BR   UNL     1      -3.275   3.027 -23.268  0.00  0.00    -0.054 Br
ATOM     19  C   UNL     1      -1.087   2.745 -23.188  0.00  0.00    +0.090 C 
ATOM     20  C   UNL     1      -0.316   1.978 -21.607  0.00  0.00    +0.090 C 
ATOM     21  C   UNL     1       2.015   2.681 -23.855  0.00  0.00    +0.163 A 
ENDROOT
BRANCH   1  23
ATOM     22  C   UNL     1       5.358   3.016 -23.817  0.00  0.00    +0.277 C 
ATOM     23  O   UNL     1       4.219   2.560 -24.153  0.00  0.00    -0.491 OA
ENDBRANCH   1  23
BRANCH  21  24
ATOM     24  O   UNL     1       2.039   3.183 -25.027  0.00  0.00    -0.503 OA
ATOM     25  H   UNL     1       1.655   2.716 -25.745  0.00  0.00    +0.292 HD
ENDBRANCH  21  24
TORSDOF 2
ENDMDL
