MODEL 1
REMARK VINA RESULT:   -11.230      0.000      0.000
REMARK INTER + INTRA:         -12.018
REMARK INTER:                 -11.881
REMARK INTRA:                  -0.137
REMARK UNBOUND:                -0.131
REMARK  Name = ZINC000096316386
REMARK  3 active torsions:
REMARK  status: ('A' for Active; 'I' for Inactive)
REMARK    1  A    between atoms: C_1  and  O_2
REMARK    2  A    between atoms: O_2  and  C_3
REMARK    3  A    between atoms: N_17  and  C_18
REMARK                            x       y       z     vdW  Elec       q    Type
REMARK                         _______ _______ _______ _____ _____    ______ ____
ROOT
ATOM      1  C   UNL     1       0.493   2.654 -23.179  0.00  0.00    +0.162 A 
ATOM      2  C   UNL     1       0.432   2.079 -22.058  0.00  0.00    +0.050 A 
ATOM      3  C   UNL     1      -0.660   1.957 -21.468  0.00  0.00    +0.008 A 
ATOM      4  C   UNL     1      -1.700   2.406 -21.992  0.00  0.00    -0.034 A 
ATOM      5  C   UNL     1      -1.664   2.982 -23.108  0.00  0.00    +0.016 A 
ATOM      6  C   UNL     1      -2.705   3.428 -23.624  0.00  0.00    +0.071 C 
ATOM      7  C   UNL     1      -3.823   3.977 -24.313  0.00  0.00    +0.071 C 
ATOM      8  C   UNL     1      -5.069   3.854 -23.672  0.00  0.00    +0.133 C 
ATOM      9  N   UNL     1      -5.098   3.207 -22.424  0.00  0.00    +0.239 N 
ATOM     10  H   UNL     1      -5.976   3.092 -21.917  0.00  0.00    +0.204 HD
ATOM     11  C   UNL     1      -6.162   3.057 -21.791  0.00  0.00    +0.191 C 
ATOM     12  C   UNL     1      -3.859   2.733 -21.917  0.00  0.00    +0.096 C 
ATOM     13  C   UNL     1      -3.800   3.308 -23.038  0.00  0.00    -0.007 C 
ATOM     14  C   UNL     1      -4.854   3.761 -23.564  0.00  0.00    +0.006 C 
ATOM     15  C   UNL     1      -4.800   4.330 -24.672  0.00  0.00    -0.000 C 
ATOM     16  C   UNL     1      -3.701   4.458 -25.274  0.00  0.00    +0.018 C 
ATOM     17  C   UNL     1      -2.660   4.009 -24.751  0.00  0.00    +0.212 C 
ATOM     18  O   UNL     1      -1.169   3.820 -24.873  0.00  0.00    -0.480 OA
ATOM     19  C   UNL     1      -2.818   2.284 -21.395  0.00  0.00    +0.094 C 
ATOM     20  C   UNL     1      -0.563   3.107 -23.705  0.00  0.00    +0.167 A 
ENDROOT
BRANCH   1  22
ATOM     21  C   UNL     1       2.398   3.651 -23.403  0.00  0.00    +0.277 C 
ATOM     22  O   UNL     1       1.588   2.774 -23.765  0.00  0.00    -0.491 OA
ENDBRANCH   1  22
TORSDOF 1
ENDMDL
MODEL 2
REMARK VINA RESULT:   -10.739      2.119      5.341
REMARK INTER + INTRA:         -11.498
REMARK INTER:                 -11.377
REMARK INTRA:                  -0.121
REMARK UNBOUND:                -0.131
REMARK  Name = ZINC000096316386
REMARK  3 active torsions:
REMARK  status: ('A' for Active; 'I' for Inactive)
REMARK    1  A    between atoms: C_1  and  O_2
REMARK    2  A    between atoms: O_2  and  C_3
REMARK    3  A    between atoms: N_17  and  C_18
REMARK                            x       y       z     vdW  Elec       q    Type
REMARK                         _______ _______ _______ _____ _____    ______ ____
ROOT
ATOM      1  C   UNL     1      -4.781   3.615 -22.800  0.00  0.00    +0.162 A 
ATOM      2  C   UNL     1      -4.921   4.077 -23.966  0.00  0.00    +0.050 A 
ATOM      3  C   UNL     1      -3.957   4.098 -24.757  0.00  0.00    +0.008 A 
ATOM      4  C   UNL     1      -2.847   3.658 -24.393  0.00  0.00    -0.034 A 
ATOM      5  C   UNL     1      -2.684   3.193 -23.238  0.00  0.00    +0.016 A 
ATOM      6  C   UNL     1      -1.575   2.756 -22.881  0.00  0.00    +0.071 C 
ATOM      7  C   UNL     1      -0.360   2.230 -22.359  0.00  0.00    +0.071 C 
ATOM      8  C   UNL     1       0.746   2.240 -23.230  0.00  0.00    +0.133 C 
ATOM      9  N   UNL     1       0.553   2.763 -24.521  0.00  0.00    +0.239 N 
ATOM     10  H   UNL     1       1.321   2.793 -25.191  0.00  0.00    +0.204 HD
ATOM     11  C   UNL     1       1.481   2.808 -25.353  0.00  0.00    +0.191 C 
ATOM     12  C   UNL     1      -0.749   3.237 -24.835  0.00  0.00    +0.096 C 
ATOM     13  C   UNL     1      -0.608   2.775 -23.669  0.00  0.00    -0.007 C 
ATOM     14  C   UNL     1       0.516   2.331 -23.305  0.00  0.00    +0.006 C 
ATOM     15  C   UNL     1       0.660   1.874 -22.154  0.00  0.00    -0.000 C 
ATOM     16  C   UNL     1      -0.309   1.849 -21.348  0.00  0.00    +0.018 C 
ATOM     17  C   UNL     1      -1.420   2.289 -21.712  0.00  0.00    +0.212 C 
ATOM     18  O   UNL     1      -2.855   2.550 -21.335  0.00  0.00    -0.480 OA
ATOM     19  C   UNL     1      -1.860   3.676 -25.196  0.00  0.00    +0.094 C 
ATOM     20  C   UNL     1      -3.655   3.171 -22.437  0.00  0.00    +0.167 A 
ENDROOT
BRANCH   1  22
ATOM     21  C   UNL     1      -6.284   2.513 -21.704  0.00  0.00    +0.277 C 
ATOM     22  O   UNL     1      -5.748   3.597 -22.012  0.00  0.00    -0.491 OA
ENDBRANCH   1  22
TORSDOF 1
ENDMDL
MODEL 3
REMARK VINA RESULT:   -10.664      1.383      2.694
REMARK INTER + INTRA:         -11.419
REMARK INTER:                 -11.294
REMARK INTRA:                  -0.125
REMARK UNBOUND:                -0.131
REMARK  Name = ZINC000096316386
REMARK  3 active torsions:
REMARK  status: ('A' for Active; 'I' for Inactive)
REMARK    1  A    between atoms: C_1  and  O_2
REMARK    2  A    between atoms: O_2  and  C_3
REMARK    3  A    between atoms: N_17  and  C_18
REMARK                            x       y       z     vdW  Elec       q    Type
REMARK                         _______ _______ _______ _____ _____    ______ ____
ROOT
ATOM      1  C   UNL     1       0.944   2.294 -22.623  0.00  0.00    +0.162 A 
ATOM      2  C   UNL     1       1.208   2.632 -23.810  0.00  0.00    +0.050 A 
ATOM      3  C   UNL     1       0.308   3.061 -24.559  0.00  0.00    +0.008 A 
ATOM      4  C   UNL     1      -0.861   3.156 -24.132  0.00  0.00    -0.034 A 
ATOM      5  C   UNL     1      -1.147   2.825 -22.955  0.00  0.00    +0.016 A 
ATOM      6  C   UNL     1      -2.315   2.923 -22.535  0.00  0.00    +0.071 C 
ATOM      7  C   UNL     1      -3.608   2.989 -21.943  0.00  0.00    +0.071 C 
ATOM      8  C   UNL     1      -4.643   3.469 -22.766  0.00  0.00    +0.133 C 
ATOM      9  N   UNL     1      -4.313   3.836 -24.082  0.00  0.00    +0.239 N 
ATOM     10  H   UNL     1      -5.026   4.189 -24.719  0.00  0.00    +0.204 HD
ATOM     11  C   UNL     1      -5.172   4.270 -24.875  0.00  0.00    +0.191 C 
ATOM     12  C   UNL     1      -2.953   3.688 -24.468  0.00  0.00    +0.096 C 
ATOM     13  C   UNL     1      -3.219   3.351 -23.281  0.00  0.00    -0.007 C 
ATOM     14  C   UNL     1      -4.402   3.449 -22.854  0.00  0.00    +0.006 C 
ATOM     15  C   UNL     1      -4.668   3.116 -21.682  0.00  0.00    -0.000 C 
ATOM     16  C   UNL     1      -3.765   2.682 -20.918  0.00  0.00    +0.018 C 
ATOM     17  C   UNL     1      -2.595   2.587 -21.345  0.00  0.00    +0.212 C 
ATOM     18  O   UNL     1      -1.171   2.199 -21.039  0.00  0.00    -0.480 OA
ATOM     19  C   UNL     1      -1.784   3.592 -24.893  0.00  0.00    +0.094 C 
ATOM     20  C   UNL     1      -0.241   2.393 -22.196  0.00  0.00    +0.167 A 
ENDROOT
BRANCH   1  22
ATOM     21  C   UNL     1       2.462   0.822 -22.174  0.00  0.00    +0.277 C 
ATOM     22  O   UNL     1       1.847   1.866 -21.877  0.00  0.00    -0.491 OA
ENDBRANCH   1  22
TORSDOF 1
ENDMDL
MODEL 4
REMARK VINA RESULT:    -9.812      1.280      2.057
REMARK INTER + INTRA:         -10.517
REMARK INTER:                 -10.400
REMARK INTRA:                  -0.117
REMARK UNBOUND:                -0.131
REMARK  Name = ZINC000096316386
REMARK  3 active torsions:
REMARK  status: ('A' for Active; 'I' for Inactive)
REMARK    1  A    between atoms: C_1  and  O_2
REMARK    2  A    between atoms: O_2  and  C_3
REMARK    3  A    between atoms: N_17  and  C_18
REMARK                            x       y       z     vdW  Elec       q    Type
REMARK                         _______ _______ _______ _____ _____    ______ ____
ROOT
ATOM      1  C   UNL     1       2.416   1.972 -23.101  0.00  0.00    +0.162 A 
ATOM      2  C   UNL     1       2.370   1.516 -21.925  0.00  0.00    +0.050 A 
ATOM      3  C   UNL     1       1.293   1.494 -21.297  0.00  0.00    +0.008 A 
ATOM      4  C   UNL     1       0.253   1.925 -21.836  0.00  0.00    -0.034 A 
ATOM      5  C   UNL     1       0.274   2.383 -23.005  0.00  0.00    +0.016 A 
ATOM      6  C   UNL     1      -0.767   2.812 -23.537  0.00  0.00    +0.071 C 
ATOM      7  C   UNL     1      -1.886   3.328 -24.249  0.00  0.00    +0.071 C 
ATOM      8  C   UNL     1      -3.116   3.316 -23.565  0.00  0.00    +0.133 C 
ATOM      9  N   UNL     1      -3.129   2.801 -22.257  0.00  0.00    +0.239 N 
ATOM     10  H   UNL     1      -3.994   2.769 -21.718  0.00  0.00    +0.204 HD
ATOM     11  C   UNL     1      -4.177   2.754 -21.583  0.00  0.00    +0.191 C 
ATOM     12  C   UNL     1      -1.891   2.336 -21.737  0.00  0.00    +0.096 C 
ATOM     13  C   UNL     1      -1.847   2.791 -22.913  0.00  0.00    -0.007 C 
ATOM     14  C   UNL     1      -2.901   3.226 -23.454  0.00  0.00    +0.006 C 
ATOM     15  C   UNL     1      -2.862   3.678 -24.616  0.00  0.00    -0.000 C 
ATOM     16  C   UNL     1      -1.777   3.704 -25.257  0.00  0.00    +0.018 C 
ATOM     17  C   UNL     1      -0.736   3.272 -24.718  0.00  0.00    +0.212 C 
ATOM     18  O   UNL     1       0.742   3.018 -24.860  0.00  0.00    -0.480 OA
ATOM     19  C   UNL     1      -0.850   1.905 -21.200  0.00  0.00    +0.094 C 
ATOM     20  C   UNL     1       1.360   2.407 -23.641  0.00  0.00    +0.167 A 
ENDROOT
BRANCH   1  22
ATOM     21  C   UNL     1       4.524   2.442 -23.180  0.00  0.00    +0.277 C 
ATOM     22  O   UNL     1       3.496   1.992 -23.724  0.00  0.00    -0.491 OA
ENDBRANCH   1  22
TORSDOF 1
ENDMDL
MODEL 5
REMARK VINA RESULT:    -9.730      2.604      6.320
REMARK INTER + INTRA:         -10.430
REMARK INTER:                 -10.310
REMARK INTRA:                  -0.120
REMARK UNBOUND:                -0.131
REMARK  Name = ZINC000096316386
REMARK  3 active torsions:
REMARK  status: ('A' for Active; 'I' for Inactive)
REMARK    1  A    between atoms: C_1  and  O_2
REMARK    2  A    between atoms: O_2  and  C_3
REMARK    3  A    between atoms: N_17  and  C_18
REMARK                            x       y       z     vdW  Elec       q    Type
REMARK                         _______ _______ _______ _____ _____    ______ ____
ROOT
ATOM      1  C   UNL     1      -1.836   3.209 -23.124  0.00  0.00    +0.162 A 
ATOM      2  C   UNL     1      -1.813   4.414 -23.497  0.00  0.00    +0.050 A 
ATOM      3  C   UNL     1      -0.730   5.023 -23.603  0.00  0.00    +0.008 A 
ATOM      4  C   UNL     1       0.339   4.434 -23.340  0.00  0.00    -0.034 A 
ATOM      5  C   UNL     1       0.342   3.235 -22.968  0.00  0.00    +0.016 A 
ATOM      6  C   UNL     1       1.411   2.654 -22.707  0.00  0.00    +0.071 C 
ATOM      7  C   UNL     1       2.565   1.887 -22.381  0.00  0.00    +0.071 C 
ATOM      8  C   UNL     1       3.802   2.547 -22.492  0.00  0.00    +0.133 C 
ATOM      9  N   UNL     1       3.788   3.890 -22.910  0.00  0.00    +0.239 N 
ATOM     10  H   UNL     1       4.658   4.414 -23.007  0.00  0.00    +0.204 HD
ATOM     11  C   UNL     1       4.841   4.546 -23.034  0.00  0.00    +0.191 C 
ATOM     12  C   UNL     1       2.518   4.465 -23.184  0.00  0.00    +0.096 C 
ATOM     13  C   UNL     1       2.498   3.259 -22.812  0.00  0.00    -0.007 C 
ATOM     14  C   UNL     1       3.581   2.669 -22.547  0.00  0.00    +0.006 C 
ATOM     15  C   UNL     1       3.565   1.478 -22.179  0.00  0.00    -0.000 C 
ATOM     16  C   UNL     1       2.474   0.856 -22.068  0.00  0.00    +0.018 C 
ATOM     17  C   UNL     1       1.404   1.443 -22.332  0.00  0.00    +0.212 C 
ATOM     18  O   UNL     1      -0.097   1.347 -22.415  0.00  0.00    -0.480 OA
ATOM     19  C   UNL     1       1.448   5.050 -23.447  0.00  0.00    +0.094 C 
ATOM     20  C   UNL     1      -0.751   2.618 -22.859  0.00  0.00    +0.167 A 
ENDROOT
BRANCH   1  22
ATOM     21  C   UNL     1      -3.834   3.075 -22.310  0.00  0.00    +0.277 C 
ATOM     22  O   UNL     1      -2.922   2.604 -23.019  0.00  0.00    -0.491 OA
ENDBRANCH   1  22
TORSDOF 1
ENDMDL
MODEL 6
REMARK VINA RESULT:    -9.143      2.555      5.746
REMARK INTER + INTRA:          -9.809
REMARK INTER:                  -9.703
REMARK INTRA:                  -0.105
REMARK UNBOUND:                -0.131
REMARK  Name = ZINC000096316386
REMARK  3 active torsions:
REMARK  status: ('A' for Active; 'I' for Inactive)
REMARK    1  A    between atoms: C_1  and  O_2
REMARK    2  A    between atoms: O_2  and  C_3
REMARK    3  A    between atoms: N_17  and  C_18
REMARK                            x       y       z     vdW  Elec       q    Type
REMARK                         _______ _______ _______ _____ _____    ______ ____
ROOT
ATOM      1  C   UNL     1      -2.169   3.157 -22.396  0.00  0.00    +0.162 A 
ATOM      2  C   UNL     1      -2.174   2.004 -21.882  0.00  0.00    +0.050 A 
ATOM      3  C   UNL     1      -1.103   1.396 -21.686  0.00  0.00    +0.008 A 
ATOM      4  C   UNL     1      -0.020   1.932 -21.999  0.00  0.00    -0.034 A 
ATOM      5  C   UNL     1       0.010   3.078 -22.511  0.00  0.00    +0.016 A 
ATOM      6  C   UNL     1       1.093   3.606 -22.821  0.00  0.00    +0.071 C 
ATOM      7  C   UNL     1       2.265   4.312 -23.215  0.00  0.00    +0.071 C 
ATOM      8  C   UNL     1       3.488   3.649 -23.005  0.00  0.00    +0.133 C 
ATOM      9  N   UNL     1       3.444   2.366 -22.431  0.00  0.00    +0.239 N 
ATOM     10  H   UNL     1       4.303   1.844 -22.258  0.00  0.00    +0.204 HD
ATOM     11  C   UNL     1       4.484   1.713 -22.212  0.00  0.00    +0.191 C 
ATOM     12  C   UNL     1       2.160   1.849 -22.112  0.00  0.00    +0.096 C 
ATOM     13  C   UNL     1       2.167   3.001 -22.626  0.00  0.00    -0.007 C 
ATOM     14  C   UNL     1       3.264   3.539 -22.941  0.00  0.00    +0.006 C 
ATOM     15  C   UNL     1       3.275   4.678 -23.448  0.00  0.00    -0.000 C 
ATOM     16  C   UNL     1       2.197   5.299 -23.650  0.00  0.00    +0.018 C 
ATOM     17  C   UNL     1       1.113   4.764 -23.337  0.00  0.00    +0.212 C 
ATOM     18  O   UNL     1      -0.388   4.894 -23.292  0.00  0.00    -0.480 OA
ATOM     19  C   UNL     1       1.076   1.315 -21.800  0.00  0.00    +0.094 C 
ATOM     20  C   UNL     1      -1.070   3.694 -22.711  0.00  0.00    +0.167 A 
ENDROOT
BRANCH   1  22
ATOM     21  C   UNL     1      -4.304   3.328 -22.098  0.00  0.00    +0.277 C 
ATOM     22  O   UNL     1      -3.243   3.762 -22.591  0.00  0.00    -0.491 OA
ENDBRANCH   1  22
TORSDOF 1
ENDMDL
MODEL 7
REMARK VINA RESULT:    -8.913      2.402      4.102
REMARK INTER + INTRA:          -9.566
REMARK INTER:                  -9.422
REMARK INTRA:                  -0.144
REMARK UNBOUND:                -0.131
REMARK  Name = ZINC000096316386
REMARK  3 active torsions:
REMARK  status: ('A' for Active; 'I' for Inactive)
REMARK    1  A    between atoms: C_1  and  O_2
REMARK    2  A    between atoms: O_2  and  C_3
REMARK    3  A    between atoms: N_17  and  C_18
REMARK                            x       y       z     vdW  Elec       q    Type
REMARK                         _______ _______ _______ _____ _____    ______ ____
ROOT
ATOM      1  C   UNL     1       4.345   2.016 -22.209  0.00  0.00    +0.162 A 
ATOM      2  C   UNL     1       3.962   1.405 -21.174  0.00  0.00    +0.050 A 
ATOM      3  C   UNL     1       2.746   1.276 -20.929  0.00  0.00    +0.008 A 
ATOM      4  C   UNL     1       1.902   1.755 -21.715  0.00  0.00    -0.034 A 
ATOM      5  C   UNL     1       2.260   2.367 -22.751  0.00  0.00    +0.016 A 
ATOM      6  C   UNL     1       1.413   2.843 -23.530  0.00  0.00    +0.071 C 
ATOM      7  C   UNL     1       0.543   3.427 -24.493  0.00  0.00    +0.071 C 
ATOM      8  C   UNL     1      -0.836   3.298 -24.243  0.00  0.00    +0.133 C 
ATOM      9  N   UNL     1      -1.225   2.611 -23.079  0.00  0.00    +0.239 N 
ATOM     10  H   UNL     1      -2.212   2.490 -22.852  0.00  0.00    +0.204 HD
ATOM     11  C   UNL     1      -2.427   2.453 -22.785  0.00  0.00    +0.191 C 
ATOM     12  C   UNL     1      -0.186   2.105 -22.253  0.00  0.00    +0.096 C 
ATOM     13  C   UNL     1       0.195   2.717 -23.290  0.00  0.00    -0.007 C 
ATOM     14  C   UNL     1      -0.661   3.199 -24.081  0.00  0.00    +0.006 C 
ATOM     15  C   UNL     1      -0.289   3.804 -25.106  0.00  0.00    -0.000 C 
ATOM     16  C   UNL     1       0.938   3.938 -25.360  0.00  0.00    +0.018 C 
ATOM     17  C   UNL     1       1.783   3.459 -24.575  0.00  0.00    +0.212 C 
ATOM     18  O   UNL     1       3.245   3.256 -24.269  0.00  0.00    -0.480 OA
ATOM     19  C   UNL     1       0.660   1.627 -21.470  0.00  0.00    +0.094 C 
ATOM     20  C   UNL     1       3.487   2.499 -23.001  0.00  0.00    +0.167 A 
ENDROOT
BRANCH   1  22
ATOM     21  C   UNL     1       6.174   3.158 -22.065  0.00  0.00    +0.277 C 
ATOM     22  O   UNL     1       5.562   2.142 -22.450  0.00  0.00    -0.491 OA
ENDBRANCH   1  22
TORSDOF 1
ENDMDL
