MODEL 1
REMARK VINA RESULT:   -11.387      0.000      0.000
REMARK INTER + INTRA:          -7.238
REMARK INTER:                 -14.204
REMARK INTRA:                   6.966
REMARK UNBOUND:                 6.812
REMARK  Name = ZINC000001609907
REMARK  7 active torsions:
REMARK  status: ('A' for Active; 'I' for Inactive)
REMARK    1  A    between atoms: C_1  and  C_2
REMARK    2  A    between atoms: C_2  and  C_3
REMARK    3  A    between atoms: C_16  and  O_17
REMARK    4  A    between atoms: O_17  and  C_18
REMARK    5  A    between atoms: C_21  and  C_22
REMARK    6  A    between atoms: C_22  and  O_24
REMARK    7  A    between atoms: O_24  and  C_25
REMARK                            x       y       z     vdW  Elec       q    Type
REMARK                         _______ _______ _______ _____ _____    ______ ____
ROOT
ATOM      1  C   UNL     1      -4.085   3.206 -21.905  0.00  0.00    +0.039 C 
ATOM      2  C   UNL     1      -5.413   3.387 -22.109  0.00  0.00    +0.017 C 
ATOM      3  C   UNL     1      -5.823   3.749 -23.558  0.00  0.00    +0.037 C 
ATOM      4  C   UNL     1      -4.814   3.699 -23.799  0.00  0.00    +0.135 C 
ATOM      5  N   UNL     1      -4.252   3.445 -22.911  0.00  0.00    +0.239 N 
ATOM      6  H   UNL     1      -5.242   3.493 -22.668  0.00  0.00    +0.204 HD
ATOM      7  C   UNL     1      -4.243   3.337 -22.426  0.00  0.00    +0.136 C 
ATOM      8  C   UNL     1      -2.742   3.119 -22.134  0.00  0.00    +0.088 C 
ATOM      9  C   UNL     1      -1.730   3.292 -23.380  0.00  0.00    -0.013 A 
ATOM     10  C   UNL     1      -2.347   3.623 -24.594  0.00  0.00    +0.043 A 
ATOM     11  C   UNL     1      -3.389   3.664 -24.296  0.00  0.00    +0.150 C 
ATOM     12  N   UNL     1      -1.360   3.729 -25.525  0.00  0.00    -0.357 N 
ATOM     13  H   UNL     1      -1.479   3.951 -26.477  0.00  0.00    +0.166 HD
ATOM     14  C   UNL     1      -0.150   3.463 -24.886  0.00  0.00    +0.047 A 
ATOM     15  C   UNL     1       1.144   3.430 -25.332  0.00  0.00    +0.030 A 
ATOM     16  C   UNL     1       2.161   3.134 -24.461  0.00  0.00    +0.047 A 
ATOM     17  C   UNL     1       1.889   2.870 -23.147  0.00  0.00    +0.121 A 
ATOM     18  C   UNL     1       0.602   2.904 -22.705  0.00  0.00    +0.056 A 
ATOM     19  C   UNL     1      -0.411   3.200 -23.572  0.00  0.00    +0.007 A 
ATOM     20  C   UNL     1      -4.799   3.886 -24.650  0.00  0.00    +0.038 C 
ATOM     21  C   UNL     1      -3.221   3.404 -23.198  0.00  0.00    +0.091 C 
ENDROOT
BRANCH   1  23
ATOM     22  C   UNL     1      -3.115   3.534 -19.830  0.00  0.00    +0.004 C 
ATOM     23  C   UNL     1      -3.824   2.917 -20.718  0.00  0.00    +0.006 C 
ENDBRANCH   1  23
BRANCH  11  24
ATOM     24  C   UNL     1      -3.466   3.905 -25.351  0.00  0.00    +0.324 C 
ATOM     25  O   UNL     1      -3.509   4.958 -25.580  0.00  0.00    -0.250 OA
BRANCH  24  26
ATOM     26  O   UNL     1      -3.505   2.978 -26.293  0.00  0.00    -0.467 OA
ATOM     27  C   UNL     1      -3.615   3.381 -27.576  0.00  0.00    +0.280 C 
ENDBRANCH  24  26
ENDBRANCH  11  24
BRANCH  17  28
ATOM     28  O   UNL     1       2.869   2.570 -22.240  0.00  0.00    -0.495 OA
ATOM     29  C   UNL     1       2.674   1.601 -21.330  0.00  0.00    +0.277 C 
ENDBRANCH  17  28
TORSDOF 4
ENDMDL
MODEL 2
REMARK VINA RESULT:   -10.088      1.804      3.595
REMARK INTER + INTRA:          -5.635
REMARK INTER:                 -12.750
REMARK INTRA:                   7.114
REMARK UNBOUND:                 6.812
REMARK  Name = ZINC000001609907
REMARK  7 active torsions:
REMARK  status: ('A' for Active; 'I' for Inactive)
REMARK    1  A    between atoms: C_1  and  C_2
REMARK    2  A    between atoms: C_2  and  C_3
REMARK    3  A    between atoms: C_16  and  O_17
REMARK    4  A    between atoms: O_17  and  C_18
REMARK    5  A    between atoms: C_21  and  C_22
REMARK    6  A    between atoms: C_22  and  O_24
REMARK    7  A    between atoms: O_24  and  C_25
REMARK                            x       y       z     vdW  Elec       q    Type
REMARK                         _______ _______ _______ _____ _____    ______ ____
ROOT
ATOM      1  C   UNL     1      -3.674   3.844 -25.077  0.00  0.00    +0.039 C 
ATOM      2  C   UNL     1      -4.988   4.128 -24.911  0.00  0.00    +0.017 C 
ATOM      3  C   UNL     1      -5.541   3.925 -23.479  0.00  0.00    +0.037 C 
ATOM      4  C   UNL     1      -4.584   3.625 -23.209  0.00  0.00    +0.135 C 
ATOM      5  N   UNL     1      -3.943   3.673 -24.079  0.00  0.00    +0.239 N 
ATOM      6  H   UNL     1      -4.881   3.968 -24.349  0.00  0.00    +0.204 HD
ATOM      7  C   UNL     1      -3.882   3.773 -24.561  0.00  0.00    +0.136 C 
ATOM      8  C   UNL     1      -2.389   3.464 -24.810  0.00  0.00    +0.088 C 
ATOM      9  C   UNL     1      -1.535   2.953 -23.538  0.00  0.00    -0.013 A 
ATOM     10  C   UNL     1      -2.265   2.850 -22.346  0.00  0.00    +0.043 A 
ATOM     11  C   UNL     1      -3.248   3.170 -22.673  0.00  0.00    +0.150 C 
ATOM     12  N   UNL     1      -1.402   2.411 -21.389  0.00  0.00    -0.357 N 
ATOM     13  H   UNL     1      -1.619   2.241 -20.444  0.00  0.00    +0.166 HD
ATOM     14  C   UNL     1      -0.156   2.248 -21.992  0.00  0.00    +0.047 A 
ATOM     15  C   UNL     1       1.057   1.835 -21.510  0.00  0.00    +0.030 A 
ATOM     16  C   UNL     1       2.140   1.767 -22.349  0.00  0.00    +0.047 A 
ATOM     17  C   UNL     1       2.015   2.111 -23.667  0.00  0.00    +0.121 A 
ATOM     18  C   UNL     1       0.808   2.520 -24.144  0.00  0.00    +0.056 A 
ATOM     19  C   UNL     1      -0.272   2.588 -23.309  0.00  0.00    +0.007 A 
ATOM     20  C   UNL     1      -4.660   3.443 -22.361  0.00  0.00    +0.038 C 
ATOM     21  C   UNL     1      -2.969   3.359 -23.763  0.00  0.00    +0.091 C 
ENDROOT
BRANCH   1  23
ATOM     22  C   UNL     1      -3.328   3.254 -27.288  0.00  0.00    +0.004 C 
ATOM     23  C   UNL     1      -3.294   4.029 -26.252  0.00  0.00    +0.006 C 
ENDBRANCH   1  23
BRANCH  11  24
ATOM     24  C   UNL     1      -3.435   2.967 -21.624  0.00  0.00    +0.324 C 
ATOM     25  O   UNL     1      -3.702   1.948 -21.393  0.00  0.00    -0.250 OA
BRANCH  24  26
ATOM     26  O   UNL     1      -3.344   3.899 -20.690  0.00  0.00    -0.467 OA
ATOM     27  C   UNL     1      -3.431   3.517 -19.400  0.00  0.00    +0.280 C 
ENDBRANCH  24  26
ENDBRANCH  11  24
BRANCH  17  28
ATOM     28  O   UNL     1       3.065   2.060 -24.542  0.00  0.00    -0.495 OA
ATOM     29  C   UNL     1       4.312   2.326 -24.119  0.00  0.00    +0.277 C 
ENDBRANCH  17  28
TORSDOF 4
ENDMDL
MODEL 3
REMARK VINA RESULT:    -8.472      2.115      4.284
REMARK INTER + INTRA:          -3.641
REMARK INTER:                 -10.707
REMARK INTRA:                   7.066
REMARK UNBOUND:                 6.812
REMARK  Name = ZINC000001609907
REMARK  7 active torsions:
REMARK  status: ('A' for Active; 'I' for Inactive)
REMARK    1  A    between atoms: C_1  and  C_2
REMARK    2  A    between atoms: C_2  and  C_3
REMARK    3  A    between atoms: C_16  and  O_17
REMARK    4  A    between atoms: O_17  and  C_18
REMARK    5  A    between atoms: C_21  and  C_22
REMARK    6  A    between atoms: C_22  and  O_24
REMARK    7  A    between atoms: O_24  and  C_25
REMARK                            x       y       z     vdW  Elec       q    Type
REMARK                         _______ _______ _______ _____ _____    ______ ____
ROOT
ATOM      1  C   UNL     1      -1.094   3.521 -24.904  0.00  0.00    +0.039 C 
ATOM      2  C   UNL     1      -2.385   3.864 -25.131  0.00  0.00    +0.017 C 
ATOM      3  C   UNL     1      -3.357   3.626 -23.949  0.00  0.00    +0.037 C 
ATOM      4  C   UNL     1      -2.540   3.268 -23.418  0.00  0.00    +0.135 C 
ATOM      5  N   UNL     1      -1.661   3.322 -24.047  0.00  0.00    +0.239 N 
ATOM      6  H   UNL     1      -2.461   3.675 -24.573  0.00  0.00    +0.204 HD
ATOM      7  C   UNL     1      -1.452   3.439 -24.482  0.00  0.00    +0.136 C 
ATOM      8  C   UNL     1       0.034   3.067 -24.281  0.00  0.00    +0.088 C 
ATOM      9  C   UNL     1       0.438   2.459 -22.841  0.00  0.00    -0.013 A 
ATOM     10  C   UNL     1      -0.625   2.341 -21.935  0.00  0.00    +0.043 A 
ATOM     11  C   UNL     1      -1.449   2.723 -22.528  0.00  0.00    +0.150 C 
ATOM     12  N   UNL     1      -0.113   1.818 -20.788  0.00  0.00    -0.357 N 
ATOM     13  H   UNL     1      -0.615   1.618 -19.965  0.00  0.00    +0.166 HD
ATOM     14  C   UNL     1       1.252   1.619 -20.990  0.00  0.00    +0.047 A 
ATOM     15  C   UNL     1       2.243   1.125 -20.186  0.00  0.00    +0.030 A 
ATOM     16  C   UNL     1       3.529   1.040 -20.658  0.00  0.00    +0.047 A 
ATOM     17  C   UNL     1       3.825   1.446 -21.930  0.00  0.00    +0.121 A 
ATOM     18  C   UNL     1       2.838   1.936 -22.728  0.00  0.00    +0.056 A 
ATOM     19  C   UNL     1       1.557   2.021 -22.258  0.00  0.00    +0.007 A 
ATOM     20  C   UNL     1      -2.878   3.053 -22.645  0.00  0.00    +0.038 C 
ATOM     21  C   UNL     1      -0.842   2.946 -23.468  0.00  0.00    +0.091 C 
ENDROOT
BRANCH   1  23
ATOM     22  C   UNL     1       0.887   4.052 -25.977  0.00  0.00    +0.004 C 
ATOM     23  C   UNL     1      -0.365   3.738 -25.896  0.00  0.00    +0.006 C 
ENDBRANCH   1  23
BRANCH  11  24
ATOM     24  C   UNL     1      -1.956   2.485 -21.598  0.00  0.00    +0.324 C 
ATOM     25  O   UNL     1      -2.363   1.488 -21.539  0.00  0.00    -0.250 OA
BRANCH  24  26
ATOM     26  O   UNL     1      -2.069   3.351 -20.606  0.00  0.00    -0.467 OA
ATOM     27  C   UNL     1      -3.240   3.401 -19.937  0.00  0.00    +0.280 C 
ENDBRANCH  24  26
ENDBRANCH  11  24
BRANCH  17  28
ATOM     28  O   UNL     1       5.091   1.380 -22.445  0.00  0.00    -0.495 OA
ATOM     29  C   UNL     1       5.923   2.429 -22.330  0.00  0.00    +0.277 C 
ENDBRANCH  17  28
TORSDOF 4
ENDMDL
