MODEL 1
REMARK VINA RESULT:   -11.107      0.000      0.000
REMARK INTER + INTRA:         -11.756
REMARK INTER:                 -11.756
REMARK INTRA:                   0.000
REMARK UNBOUND:                 0.000
REMARK  Name = ZINC000003902446
REMARK  3 active torsions:
REMARK  status: ('A' for Active; 'I' for Inactive)
REMARK    1  A    between atoms: C_1  and  C_2
REMARK    2  A    between atoms: C_10  and  O_11
REMARK    3  A    between atoms: C_20  and  O_21
REMARK                            x       y       z     vdW  Elec       q    Type
REMARK                         _______ _______ _______ _____ _____    ______ ____
ROOT
ATOM      1  C   UNL     1      -4.587   3.042 -21.811  0.00  0.00    +0.014 C 
ATOM      2  C   UNL     1      -3.867   3.284 -22.865  0.00  0.00    -0.003 C 
ATOM      3  C   UNL     1      -3.198   2.775 -21.874  0.00  0.00    +0.010 C 
ATOM      4  C   UNL     1      -1.923   2.553 -21.995  0.00  0.00    +0.009 C 
ATOM      5  C   UNL     1      -1.316   2.841 -23.108  0.00  0.00    +0.023 C 
ATOM      6  C   UNL     1      -0.041   2.620 -23.230  0.00  0.00    -0.040 A 
ATOM      7  C   UNL     1       0.627   2.110 -22.239  0.00  0.00    +0.023 A 
ATOM      8  C   UNL     1       1.903   1.889 -22.360  0.00  0.00    +0.060 A 
ATOM      9  C   UNL     1       2.509   2.177 -23.474  0.00  0.00    +0.131 A 
ATOM     10  C   UNL     1       1.840   2.686 -24.465  0.00  0.00    +0.050 A 
ATOM     11 BR   UNL     1       2.572   1.379 -21.368  0.00  0.00    -0.047 Br
ATOM     12  C   UNL     1       0.565   2.907 -24.343  0.00  0.00    -0.040 A 
ATOM     13  C   UNL     1      -0.104   3.417 -25.335  0.00  0.00    +0.036 C 
ATOM     14  C   UNL     1      -1.379   3.638 -25.214  0.00  0.00    +0.009 C 
ATOM     15  C   UNL     1      -1.985   3.351 -24.100  0.00  0.00    +0.000 C 
ATOM     16  C   UNL     1      -5.121   3.596 -22.998  0.00  0.00    +0.121 C 
ATOM     17  C   UNL     1      -5.291   4.077 -24.194  0.00  0.00    +0.032 C 
ATOM     18  C   UNL     1      -4.140   4.062 -24.800  0.00  0.00    +0.007 C 
ATOM     19  C   UNL     1      -3.260   3.572 -23.978  0.00  0.00    +0.001 C 
ENDROOT
BRANCH   9  20
ATOM     20  O   UNL     1       3.785   1.955 -23.595  0.00  0.00    -0.506 OA
ATOM     21  H   UNL     1       4.101   1.406 -24.285  0.00  0.00    +0.292 HD
ENDBRANCH   9  20
BRANCH  16  22
ATOM     22  O   UNL     1      -6.045   3.453 -22.095  0.00  0.00    -0.391 OA
ATOM     23  H   UNL     1      -6.527   2.626 -22.254  0.00  0.00    +0.210 HD
ENDBRANCH  16  22
TORSDOF 2
ENDMDL
MODEL 2
REMARK VINA RESULT:   -11.034      1.334      2.571
REMARK INTER + INTRA:         -11.679
REMARK INTER:                 -11.679
REMARK INTRA:                   0.000
REMARK UNBOUND:                 0.000
REMARK  Name = ZINC000003902446
REMARK  3 active torsions:
REMARK  status: ('A' for Active; 'I' for Inactive)
REMARK    1  A    between atoms: C_1  and  C_2
REMARK    2  A    between atoms: C_10  and  O_11
REMARK    3  A    between atoms: C_20  and  O_21
REMARK                            x       y       z     vdW  Elec       q    Type
REMARK                         _______ _______ _______ _____ _____    ______ ____
ROOT
ATOM      1  C   UNL     1      -3.683   4.136 -25.484  0.00  0.00    +0.014 C 
ATOM      2  C   UNL     1      -3.403   3.639 -24.316  0.00  0.00    -0.003 C 
ATOM      3  C   UNL     1      -2.391   3.676 -25.132  0.00  0.00    +0.010 C 
ATOM      4  C   UNL     1      -1.229   3.237 -24.748  0.00  0.00    +0.009 C 
ATOM      5  C   UNL     1      -1.079   2.761 -23.547  0.00  0.00    +0.023 C 
ATOM      6  C   UNL     1       0.082   2.322 -23.162  0.00  0.00    -0.040 A 
ATOM      7  C   UNL     1       1.094   2.360 -23.977  0.00  0.00    +0.023 A 
ATOM      8  C   UNL     1       2.256   1.921 -23.593  0.00  0.00    +0.060 A 
ATOM      9  C   UNL     1       2.405   1.445 -22.392  0.00  0.00    +0.131 A 
ATOM     10  C   UNL     1       1.394   1.407 -21.577  0.00  0.00    +0.050 A 
ATOM     11 BR   UNL     1       3.267   1.959 -24.408  0.00  0.00    -0.047 Br
ATOM     12  C   UNL     1       0.233   1.846 -21.962  0.00  0.00    -0.040 A 
ATOM     13  C   UNL     1      -0.780   1.809 -21.146  0.00  0.00    +0.036 C 
ATOM     14  C   UNL     1      -1.941   2.248 -21.531  0.00  0.00    +0.009 C 
ATOM     15  C   UNL     1      -2.091   2.724 -22.731  0.00  0.00    +0.000 C 
ATOM     16  C   UNL     1      -4.642   4.006 -24.451  0.00  0.00    +0.121 C 
ATOM     17  C   UNL     1      -5.259   3.757 -23.334  0.00  0.00    +0.032 C 
ATOM     18  C   UNL     1      -4.399   3.236 -22.509  0.00  0.00    +0.007 C 
ATOM     19  C   UNL     1      -3.253   3.163 -23.116  0.00  0.00    +0.001 C 
ENDROOT
BRANCH   9  20
ATOM     20  O   UNL     1       3.568   1.006 -22.008  0.00  0.00    -0.506 OA
ATOM     21  H   UNL     1       4.318   1.565 -22.055  0.00  0.00    +0.292 HD
ENDBRANCH   9  20
BRANCH  16  22
ATOM     22  O   UNL     1      -5.173   4.531 -25.516  0.00  0.00    -0.391 OA
ATOM     23  H   UNL     1      -6.094   4.773 -25.332  0.00  0.00    +0.210 HD
ENDBRANCH  16  22
TORSDOF 2
ENDMDL
MODEL 3
REMARK VINA RESULT:   -10.546      1.883      5.904
REMARK INTER + INTRA:         -11.163
REMARK INTER:                 -11.163
REMARK INTRA:                   0.000
REMARK UNBOUND:                 0.000
REMARK  Name = ZINC000003902446
REMARK  3 active torsions:
REMARK  status: ('A' for Active; 'I' for Inactive)
REMARK    1  A    between atoms: C_1  and  C_2
REMARK    2  A    between atoms: C_10  and  O_11
REMARK    3  A    between atoms: C_20  and  O_21
REMARK                            x       y       z     vdW  Elec       q    Type
REMARK                         _______ _______ _______ _____ _____    ______ ____
ROOT
ATOM      1  C   UNL     1       2.277   1.128 -21.648  0.00  0.00    +0.014 C 
ATOM      2  C   UNL     1       1.785   1.732 -22.688  0.00  0.00    -0.003 C 
ATOM      3  C   UNL     1       0.921   1.524 -21.741  0.00  0.00    +0.010 C 
ATOM      4  C   UNL     1      -0.312   1.913 -21.886  0.00  0.00    +0.009 C 
ATOM      5  C   UNL     1      -0.679   2.510 -22.981  0.00  0.00    +0.023 C 
ATOM      6  C   UNL     1      -1.911   2.899 -23.128  0.00  0.00    -0.040 A 
ATOM      7  C   UNL     1      -2.775   2.691 -22.180  0.00  0.00    +0.023 A 
ATOM      8  C   UNL     1      -4.007   3.079 -22.326  0.00  0.00    +0.060 A 
ATOM      9  C   UNL     1      -4.374   3.677 -23.422  0.00  0.00    +0.131 A 
ATOM     10  C   UNL     1      -3.509   3.885 -24.370  0.00  0.00    +0.050 A 
ATOM     11 BR   UNL     1      -4.872   2.871 -21.378  0.00  0.00    -0.047 Br
ATOM     12  C   UNL     1      -2.278   3.496 -24.223  0.00  0.00    -0.040 A 
ATOM     13  C   UNL     1      -1.412   3.705 -25.171  0.00  0.00    +0.036 C 
ATOM     14  C   UNL     1      -0.181   3.316 -25.025  0.00  0.00    +0.009 C 
ATOM     15  C   UNL     1       0.186   2.719 -23.930  0.00  0.00    +0.000 C 
ATOM     16  C   UNL     1       3.049   1.449 -22.790  0.00  0.00    +0.121 C 
ATOM     17  C   UNL     1       3.464   1.871 -23.948  0.00  0.00    +0.032 C 
ATOM     18  C   UNL     1       2.455   2.415 -24.561  0.00  0.00    +0.007 C 
ATOM     19  C   UNL     1       1.418   2.330 -23.783  0.00  0.00    +0.001 C 
ENDROOT
BRANCH   9  20
ATOM     20  O   UNL     1      -5.606   4.066 -23.568  0.00  0.00    -0.506 OA
ATOM     21  H   UNL     1      -5.809   4.980 -23.597  0.00  0.00    +0.292 HD
ENDBRANCH   9  20
BRANCH  16  22
ATOM     22  O   UNL     1       3.773   0.849 -21.892  0.00  0.00    -0.391 OA
ATOM     23  H   UNL     1       3.194   0.472 -21.209  0.00  0.00    +0.210 HD
ENDBRANCH  16  22
TORSDOF 2
ENDMDL
MODEL 4
REMARK VINA RESULT:   -10.474      1.997      6.413
REMARK INTER + INTRA:         -11.086
REMARK INTER:                 -11.086
REMARK INTRA:                   0.000
REMARK UNBOUND:                 0.000
REMARK  Name = ZINC000003902446
REMARK  3 active torsions:
REMARK  status: ('A' for Active; 'I' for Inactive)
REMARK    1  A    between atoms: C_1  and  C_2
REMARK    2  A    between atoms: C_10  and  O_11
REMARK    3  A    between atoms: C_20  and  O_21
REMARK                            x       y       z     vdW  Elec       q    Type
REMARK                         _______ _______ _______ _____ _____    ______ ____
ROOT
ATOM      1  C   UNL     1       2.742   2.339 -24.758  0.00  0.00    +0.014 C 
ATOM      2  C   UNL     1       2.021   2.107 -23.702  0.00  0.00    -0.003 C 
ATOM      3  C   UNL     1       1.366   2.665 -24.676  0.00  0.00    +0.010 C 
ATOM      4  C   UNL     1       0.103   2.940 -24.539  0.00  0.00    +0.009 C 
ATOM      5  C   UNL     1      -0.506   2.657 -23.426  0.00  0.00    +0.023 C 
ATOM      6  C   UNL     1      -1.769   2.931 -23.287  0.00  0.00    -0.040 A 
ATOM      7  C   UNL     1      -2.423   3.489 -24.262  0.00  0.00    +0.023 A 
ATOM      8  C   UNL     1      -3.686   3.764 -24.124  0.00  0.00    +0.060 A 
ATOM      9  C   UNL     1      -4.295   3.480 -23.010  0.00  0.00    +0.131 A 
ATOM     10  C   UNL     1      -3.641   2.922 -22.036  0.00  0.00    +0.050 A 
ATOM     11 BR   UNL     1      -4.341   4.322 -25.099  0.00  0.00    -0.047 Br
ATOM     12  C   UNL     1      -2.378   2.648 -22.174  0.00  0.00    -0.040 A 
ATOM     13  C   UNL     1      -1.723   2.089 -21.199  0.00  0.00    +0.036 C 
ATOM     14  C   UNL     1      -0.460   1.815 -21.337  0.00  0.00    +0.009 C 
ATOM     15  C   UNL     1       0.149   2.098 -22.450  0.00  0.00    +0.000 C 
ATOM     16  C   UNL     1       3.261   1.738 -23.587  0.00  0.00    +0.121 C 
ATOM     17  C   UNL     1       3.420   1.226 -22.402  0.00  0.00    +0.032 C 
ATOM     18  C   UNL     1       2.276   1.279 -21.785  0.00  0.00    +0.007 C 
ATOM     19  C   UNL     1       1.412   1.824 -22.589  0.00  0.00    +0.001 C 
ENDROOT
BRANCH   9  20
ATOM     20  O   UNL     1      -5.558   3.755 -22.873  0.00  0.00    -0.506 OA
ATOM     21  H   UNL     1      -6.047   4.089 -23.599  0.00  0.00    +0.292 HD
ENDBRANCH   9  20
BRANCH  16  22
ATOM     22  O   UNL     1       4.183   1.859 -24.496  0.00  0.00    -0.391 OA
ATOM     23  H   UNL     1       4.887   1.212 -24.330  0.00  0.00    +0.210 HD
ENDBRANCH  16  22
TORSDOF 2
ENDMDL
MODEL 5
REMARK VINA RESULT:    -9.894      1.756      2.818
REMARK INTER + INTRA:         -10.473
REMARK INTER:                 -10.473
REMARK INTRA:                   0.000
REMARK UNBOUND:                 0.000
REMARK  Name = ZINC000003902446
REMARK  3 active torsions:
REMARK  status: ('A' for Active; 'I' for Inactive)
REMARK    1  A    between atoms: C_1  and  C_2
REMARK    2  A    between atoms: C_10  and  O_11
REMARK    3  A    between atoms: C_20  and  O_21
REMARK                            x       y       z     vdW  Elec       q    Type
REMARK                         _______ _______ _______ _____ _____    ______ ____
ROOT
ATOM      1  C   UNL     1      -2.178   1.991 -21.386  0.00  0.00    +0.014 C 
ATOM      2  C   UNL     1      -1.344   2.602 -22.174  0.00  0.00    -0.003 C 
ATOM      3  C   UNL     1      -0.784   1.743 -21.376  0.00  0.00    +0.010 C 
ATOM      4  C   UNL     1       0.503   1.560 -21.417  0.00  0.00    +0.009 C 
ATOM      5  C   UNL     1       1.229   2.237 -22.256  0.00  0.00    +0.023 C 
ATOM      6  C   UNL     1       2.516   2.056 -22.297  0.00  0.00    -0.040 A 
ATOM      7  C   UNL     1       3.076   1.196 -21.499  0.00  0.00    +0.023 A 
ATOM      8  C   UNL     1       4.363   1.014 -21.539  0.00  0.00    +0.060 A 
ATOM      9  C   UNL     1       5.089   1.692 -22.379  0.00  0.00    +0.131 A 
ATOM     10  C   UNL     1       4.528   2.552 -23.177  0.00  0.00    +0.050 A 
ATOM     11 BR   UNL     1       4.923   0.154 -20.742  0.00  0.00    -0.047 Br
ATOM     12  C   UNL     1       3.242   2.733 -23.136  0.00  0.00    -0.040 A 
ATOM     13  C   UNL     1       2.680   3.593 -23.934  0.00  0.00    +0.036 C 
ATOM     14  C   UNL     1       1.394   3.775 -23.893  0.00  0.00    +0.009 C 
ATOM     15  C   UNL     1       0.668   3.098 -23.054  0.00  0.00    +0.000 C 
ATOM     16  C   UNL     1      -2.583   2.964 -22.330  0.00  0.00    +0.121 C 
ATOM     17  C   UNL     1      -2.622   3.866 -23.266  0.00  0.00    +0.032 C 
ATOM     18  C   UNL     1      -1.408   4.061 -23.688  0.00  0.00    +0.007 C 
ATOM     19  C   UNL     1      -0.618   3.279 -23.013  0.00  0.00    +0.001 C 
ENDROOT
BRANCH   9  20
ATOM     20  O   UNL     1       6.375   1.510 -22.419  0.00  0.00    -0.506 OA
ATOM     21  H   UNL     1       6.770   0.838 -21.899  0.00  0.00    +0.292 HD
ENDBRANCH   9  20
BRANCH  16  22
ATOM     22  O   UNL     1      -3.603   2.506 -21.668  0.00  0.00    -0.391 OA
ATOM     23  H   UNL     1      -3.299   1.850 -21.020  0.00  0.00    +0.210 HD
ENDBRANCH  16  22
TORSDOF 2
ENDMDL
MODEL 6
REMARK VINA RESULT:    -9.468      2.185      6.647
REMARK INTER + INTRA:         -10.022
REMARK INTER:                 -10.022
REMARK INTRA:                   0.000
REMARK UNBOUND:                 0.000
REMARK  Name = ZINC000003902446
REMARK  3 active torsions:
REMARK  status: ('A' for Active; 'I' for Inactive)
REMARK    1  A    between atoms: C_1  and  C_2
REMARK    2  A    between atoms: C_10  and  O_11
REMARK    3  A    between atoms: C_20  and  O_21
REMARK                            x       y       z     vdW  Elec       q    Type
REMARK                         _______ _______ _______ _____ _____    ______ ____
ROOT
ATOM      1  C   UNL     1       4.039   3.789 -23.608  0.00  0.00    +0.014 C 
ATOM      2  C   UNL     1       3.254   3.063 -22.870  0.00  0.00    -0.003 C 
ATOM      3  C   UNL     1       2.626   3.854 -23.687  0.00  0.00    +0.010 C 
ATOM      4  C   UNL     1       1.326   3.868 -23.712  0.00  0.00    +0.009 C 
ATOM      5  C   UNL     1       0.654   3.088 -22.918  0.00  0.00    +0.023 C 
ATOM      6  C   UNL     1      -0.646   3.101 -22.941  0.00  0.00    -0.040 A 
ATOM      7  C   UNL     1      -1.273   3.892 -23.759  0.00  0.00    +0.023 A 
ATOM      8  C   UNL     1      -2.573   3.906 -23.783  0.00  0.00    +0.060 A 
ATOM      9  C   UNL     1      -3.245   3.126 -22.988  0.00  0.00    +0.131 A 
ATOM     10  C   UNL     1      -2.618   2.334 -22.170  0.00  0.00    +0.050 A 
ATOM     11 BR   UNL     1      -3.200   4.698 -24.601  0.00  0.00    -0.047 Br
ATOM     12  C   UNL     1      -1.318   2.321 -22.147  0.00  0.00    -0.040 A 
ATOM     13  C   UNL     1      -0.690   1.529 -21.329  0.00  0.00    +0.036 C 
ATOM     14  C   UNL     1       0.609   1.516 -21.305  0.00  0.00    +0.009 C 
ATOM     15  C   UNL     1       1.282   2.296 -22.099  0.00  0.00    +0.000 C 
ATOM     16  C   UNL     1       4.519   2.862 -22.653  0.00  0.00    +0.121 C 
ATOM     17  C   UNL     1       4.630   1.958 -21.725  0.00  0.00    +0.032 C 
ATOM     18  C   UNL     1       3.431   1.601 -21.368  0.00  0.00    +0.007 C 
ATOM     19  C   UNL     1       2.581   2.283 -22.076  0.00  0.00    +0.001 C 
ENDROOT
BRANCH   9  20
ATOM     20  O   UNL     1      -4.545   3.139 -23.012  0.00  0.00    -0.506 OA
ATOM     21  H   UNL     1      -5.019   2.339 -23.127  0.00  0.00    +0.292 HD
ENDBRANCH   9  20
BRANCH  16  22
ATOM     22  O   UNL     1       5.503   3.459 -23.258  0.00  0.00    -0.391 OA
ATOM     23  H   UNL     1       5.881   2.865 -23.926  0.00  0.00    +0.210 HD
ENDBRANCH  16  22
TORSDOF 2
ENDMDL
MODEL 7
REMARK VINA RESULT:    -8.996      2.257      6.511
REMARK INTER + INTRA:          -9.522
REMARK INTER:                  -9.522
REMARK INTRA:                   0.000
REMARK UNBOUND:                 0.000
REMARK  Name = ZINC000003902446
REMARK  3 active torsions:
REMARK  status: ('A' for Active; 'I' for Inactive)
REMARK    1  A    between atoms: C_1  and  C_2
REMARK    2  A    between atoms: C_10  and  O_11
REMARK    3  A    between atoms: C_20  and  O_21
REMARK                            x       y       z     vdW  Elec       q    Type
REMARK                         _______ _______ _______ _____ _____    ______ ____
ROOT
ATOM      1  C   UNL     1       4.152   0.799 -21.853  0.00  0.00    +0.014 C 
ATOM      2  C   UNL     1       3.696   1.870 -22.431  0.00  0.00    -0.003 C 
ATOM      3  C   UNL     1       2.783   1.160 -21.839  0.00  0.00    +0.010 C 
ATOM      4  C   UNL     1       1.541   1.546 -21.862  0.00  0.00    +0.009 C 
ATOM      5  C   UNL     1       1.214   2.643 -22.478  0.00  0.00    +0.023 C 
ATOM      6  C   UNL     1      -0.027   3.030 -22.502  0.00  0.00    -0.040 A 
ATOM      7  C   UNL     1      -0.940   2.320 -21.910  0.00  0.00    +0.023 A 
ATOM      8  C   UNL     1      -2.182   2.706 -21.933  0.00  0.00    +0.060 A 
ATOM      9  C   UNL     1      -2.508   3.804 -22.549  0.00  0.00    +0.131 A 
ATOM     10  C   UNL     1      -1.595   4.514 -23.141  0.00  0.00    +0.050 A 
ATOM     11 BR   UNL     1      -3.095   1.996 -21.341  0.00  0.00    -0.047 Br
ATOM     12  C   UNL     1      -0.354   4.127 -23.117  0.00  0.00    -0.040 A 
ATOM     13  C   UNL     1       0.560   4.838 -23.710  0.00  0.00    +0.036 C 
ATOM     14  C   UNL     1       1.800   4.451 -23.686  0.00  0.00    +0.009 C 
ATOM     15  C   UNL     1       2.128   3.354 -23.071  0.00  0.00    +0.000 C 
ATOM     16  C   UNL     1       4.980   1.708 -22.553  0.00  0.00    +0.121 C 
ATOM     17  C   UNL     1       5.446   2.706 -23.244  0.00  0.00    +0.032 C 
ATOM     18  C   UNL     1       4.450   3.484 -23.549  0.00  0.00    +0.007 C 
ATOM     19  C   UNL     1       3.368   2.967 -23.047  0.00  0.00    +0.001 C 
ENDROOT
BRANCH   9  20
ATOM     20  O   UNL     1      -3.750   4.190 -22.572  0.00  0.00    -0.506 OA
ATOM     21  H   UNL     1      -3.963   5.067 -22.823  0.00  0.00    +0.292 HD
ENDBRANCH   9  20
BRANCH  16  22
ATOM     22  O   UNL     1       5.676   0.723 -22.069  0.00  0.00    -0.391 OA
ATOM     23  H   UNL     1       6.448   0.564 -22.634  0.00  0.00    +0.210 HD
ENDBRANCH  16  22
TORSDOF 2
ENDMDL
