MODEL 1
REMARK VINA RESULT:   -10.939      0.000      0.000
REMARK INTER + INTRA:         -11.578
REMARK INTER:                 -11.578
REMARK INTRA:                   0.000
REMARK UNBOUND:                 0.000
REMARK  Name = ZINC000003978002
REMARK  3 active torsions:
REMARK  status: ('A' for Active; 'I' for Inactive)
REMARK    1  A    between atoms: C_1  and  C_2
REMARK    2  A    between atoms: C_9  and  O_10
REMARK    3  A    between atoms: C_19  and  O_20
REMARK                            x       y       z     vdW  Elec       q    Type
REMARK                         _______ _______ _______ _____ _____    ______ ____
ROOT
ATOM      1  C   UNL     1      -4.540   3.802 -23.890  0.00  0.00    +0.014 C 
ATOM      2  C   UNL     1      -3.688   3.264 -23.069  0.00  0.00    -0.003 C 
ATOM      3  C   UNL     1      -3.180   3.583 -24.223  0.00  0.00    +0.010 C 
ATOM      4  C   UNL     1      -1.924   3.356 -24.466  0.00  0.00    +0.009 C 
ATOM      5  C   UNL     1      -1.175   2.810 -23.556  0.00  0.00    +0.023 C 
ATOM      6  C   UNL     1       0.082   2.582 -23.798  0.00  0.00    -0.041 A 
ATOM      7  C   UNL     1       0.589   2.902 -24.951  0.00  0.00    +0.008 A 
ATOM      8  C   UNL     1       1.846   2.675 -25.195  0.00  0.00    +0.046 A 
ATOM      9  C   UNL     1       2.596   2.128 -24.284  0.00  0.00    +0.117 A 
ATOM     10  C   UNL     1       2.088   1.808 -23.131  0.00  0.00    +0.049 A 
ATOM     11  C   UNL     1       0.832   2.035 -22.888  0.00  0.00    -0.040 A 
ATOM     12  C   UNL     1       0.324   1.716 -21.734  0.00  0.00    +0.036 C 
ATOM     13  C   UNL     1      -0.933   1.943 -21.492  0.00  0.00    +0.009 C 
ATOM     14  C   UNL     1      -1.682   2.490 -22.401  0.00  0.00    +0.000 C 
ATOM     15  C   UNL     1      -4.888   3.382 -22.584  0.00  0.00    +0.121 C 
ATOM     16  C   UNL     1      -4.881   2.908 -21.373  0.00  0.00    +0.032 C 
ATOM     17  C   UNL     1      -3.675   2.497 -21.111  0.00  0.00    +0.007 C 
ATOM     18  C   UNL     1      -2.938   2.717 -22.159  0.00  0.00    +0.001 C 
ENDROOT
BRANCH   9  19
ATOM     19  O   UNL     1       3.852   1.901 -24.528  0.00  0.00    -0.507 OA
ATOM     20  H   UNL     1       4.206   2.083 -25.375  0.00  0.00    +0.292 HD
ENDBRANCH   9  19
BRANCH  15  21
ATOM     21  O   UNL     1      -5.916   3.885 -23.201  0.00  0.00    -0.391 OA
ATOM     22  H   UNL     1      -5.749   4.821 -23.398  0.00  0.00    +0.210 HD
ENDBRANCH  15  21
TORSDOF 2
ENDMDL
MODEL 2
REMARK VINA RESULT:   -10.825      0.975      2.468
REMARK INTER + INTRA:         -11.458
REMARK INTER:                 -11.458
REMARK INTRA:                   0.000
REMARK UNBOUND:                 0.000
REMARK  Name = ZINC000003978002
REMARK  3 active torsions:
REMARK  status: ('A' for Active; 'I' for Inactive)
REMARK    1  A    between atoms: C_1  and  C_2
REMARK    2  A    between atoms: C_9  and  O_10
REMARK    3  A    between atoms: C_19  and  O_20
REMARK                            x       y       z     vdW  Elec       q    Type
REMARK                         _______ _______ _______ _____ _____    ______ ____
ROOT
ATOM      1  C   UNL     1      -4.903   3.090 -21.936  0.00  0.00    +0.014 C 
ATOM      2  C   UNL     1      -3.979   3.289 -22.828  0.00  0.00    -0.003 C 
ATOM      3  C   UNL     1      -3.554   2.700 -21.749  0.00  0.00    +0.010 C 
ATOM      4  C   UNL     1      -2.303   2.367 -21.640  0.00  0.00    +0.009 C 
ATOM      5  C   UNL     1      -1.475   2.622 -22.609  0.00  0.00    +0.023 C 
ATOM      6  C   UNL     1      -0.223   2.289 -22.500  0.00  0.00    -0.041 A 
ATOM      7  C   UNL     1       0.201   1.701 -21.422  0.00  0.00    +0.008 A 
ATOM      8  C   UNL     1       1.453   1.368 -21.312  0.00  0.00    +0.046 A 
ATOM      9  C   UNL     1       2.281   1.623 -22.282  0.00  0.00    +0.117 A 
ATOM     10  C   UNL     1       1.856   2.212 -23.361  0.00  0.00    +0.049 A 
ATOM     11  C   UNL     1       0.604   2.545 -23.470  0.00  0.00    -0.040 A 
ATOM     12  C   UNL     1       0.179   3.133 -24.548  0.00  0.00    +0.036 C 
ATOM     13  C   UNL     1      -1.073   3.466 -24.657  0.00  0.00    +0.009 C 
ATOM     14  C   UNL     1      -1.900   3.211 -23.689  0.00  0.00    +0.000 C 
ATOM     15  C   UNL     1      -5.155   3.715 -23.180  0.00  0.00    +0.121 C 
ATOM     16  C   UNL     1      -5.055   4.235 -24.368  0.00  0.00    +0.032 C 
ATOM     17  C   UNL     1      -3.816   4.129 -24.749  0.00  0.00    +0.007 C 
ATOM     18  C   UNL     1      -3.151   3.544 -23.797  0.00  0.00    +0.001 C 
ENDROOT
BRANCH   9  19
ATOM     19  O   UNL     1       3.532   1.290 -22.172  0.00  0.00    -0.507 OA
ATOM     20  H   UNL     1       4.125   1.456 -22.878  0.00  0.00    +0.292 HD
ENDBRANCH   9  19
BRANCH  15  21
ATOM     21  O   UNL     1      -6.241   3.637 -22.471  0.00  0.00    -0.391 OA
ATOM     22  H   UNL     1      -6.048   3.891 -21.554  0.00  0.00    +0.210 HD
ENDBRANCH  15  21
TORSDOF 2
ENDMDL
MODEL 3
REMARK VINA RESULT:   -10.492      0.861      6.153
REMARK INTER + INTRA:         -11.105
REMARK INTER:                 -11.105
REMARK INTRA:                   0.000
REMARK UNBOUND:                 0.000
REMARK  Name = ZINC000003978002
REMARK  3 active torsions:
REMARK  status: ('A' for Active; 'I' for Inactive)
REMARK    1  A    between atoms: C_1  and  C_2
REMARK    2  A    between atoms: C_9  and  O_10
REMARK    3  A    between atoms: C_19  and  O_20
REMARK                            x       y       z     vdW  Elec       q    Type
REMARK                         _______ _______ _______ _____ _____    ______ ____
ROOT
ATOM      1  C   UNL     1       2.000   1.223 -21.760  0.00  0.00    +0.014 C 
ATOM      2  C   UNL     1       1.302   1.862 -22.651  0.00  0.00    -0.003 C 
ATOM      3  C   UNL     1       0.619   1.500 -21.605  0.00  0.00    +0.010 C 
ATOM      4  C   UNL     1      -0.646   1.785 -21.524  0.00  0.00    +0.009 C 
ATOM      5  C   UNL     1      -1.230   2.432 -22.489  0.00  0.00    +0.023 C 
ATOM      6  C   UNL     1      -2.495   2.717 -22.408  0.00  0.00    -0.041 A 
ATOM      7  C   UNL     1      -3.177   2.356 -21.362  0.00  0.00    +0.008 A 
ATOM      8  C   UNL     1      -4.443   2.640 -21.280  0.00  0.00    +0.046 A 
ATOM      9  C   UNL     1      -5.027   3.288 -22.246  0.00  0.00    +0.117 A 
ATOM     10  C   UNL     1      -4.345   3.650 -23.292  0.00  0.00    +0.049 A 
ATOM     11  C   UNL     1      -3.079   3.364 -23.373  0.00  0.00    -0.040 A 
ATOM     12  C   UNL     1      -2.396   3.726 -24.419  0.00  0.00    +0.036 C 
ATOM     13  C   UNL     1      -1.131   3.441 -24.499  0.00  0.00    +0.009 C 
ATOM     14  C   UNL     1      -0.547   2.794 -23.535  0.00  0.00    +0.000 C 
ATOM     15  C   UNL     1       2.552   1.704 -22.971  0.00  0.00    +0.121 C 
ATOM     16  C   UNL     1       2.741   2.253 -24.135  0.00  0.00    +0.032 C 
ATOM     17  C   UNL     1       1.607   2.751 -24.533  0.00  0.00    +0.007 C 
ATOM     18  C   UNL     1       0.718   2.509 -23.616  0.00  0.00    +0.001 C 
ENDROOT
BRANCH   9  19
ATOM     19  O   UNL     1      -6.293   3.573 -22.165  0.00  0.00    -0.507 OA
ATOM     20  H   UNL     1      -6.570   4.466 -22.123  0.00  0.00    +0.292 HD
ENDBRANCH   9  19
BRANCH  15  21
ATOM     21  O   UNL     1       3.455   1.103 -22.255  0.00  0.00    -0.391 OA
ATOM     22  H   UNL     1       3.997   0.537 -22.827  0.00  0.00    +0.210 HD
ENDBRANCH  15  21
TORSDOF 2
ENDMDL
MODEL 4
REMARK VINA RESULT:   -10.025      0.823      5.751
REMARK INTER + INTRA:         -10.611
REMARK INTER:                 -10.611
REMARK INTRA:                   0.000
REMARK UNBOUND:                 0.000
REMARK  Name = ZINC000003978002
REMARK  3 active torsions:
REMARK  status: ('A' for Active; 'I' for Inactive)
REMARK    1  A    between atoms: C_1  and  C_2
REMARK    2  A    between atoms: C_9  and  O_10
REMARK    3  A    between atoms: C_19  and  O_20
REMARK                            x       y       z     vdW  Elec       q    Type
REMARK                         _______ _______ _______ _____ _____    ______ ____
ROOT
ATOM      1  C   UNL     1       2.819   2.284 -24.458  0.00  0.00    +0.014 C 
ATOM      2  C   UNL     1       1.976   2.127 -23.481  0.00  0.00    -0.003 C 
ATOM      3  C   UNL     1       1.457   2.664 -24.546  0.00  0.00    +0.010 C 
ATOM      4  C   UNL     1       0.199   2.991 -24.563  0.00  0.00    +0.009 C 
ATOM      5  C   UNL     1      -0.541   2.780 -23.515  0.00  0.00    +0.023 C 
ATOM      6  C   UNL     1      -1.799   3.107 -23.530  0.00  0.00    -0.041 A 
ATOM      7  C   UNL     1      -2.318   3.643 -24.594  0.00  0.00    +0.008 A 
ATOM      8  C   UNL     1      -3.576   3.970 -24.612  0.00  0.00    +0.046 A 
ATOM      9  C   UNL     1      -4.316   3.759 -23.563  0.00  0.00    +0.117 A 
ATOM     10  C   UNL     1      -3.797   3.222 -22.498  0.00  0.00    +0.049 A 
ATOM     11  C   UNL     1      -2.539   2.896 -22.482  0.00  0.00    -0.040 A 
ATOM     12  C   UNL     1      -2.020   2.359 -21.418  0.00  0.00    +0.036 C 
ATOM     13  C   UNL     1      -0.762   2.032 -21.402  0.00  0.00    +0.009 C 
ATOM     14  C   UNL     1      -0.022   2.243 -22.449  0.00  0.00    +0.000 C 
ATOM     15  C   UNL     1       3.180   1.718 -23.212  0.00  0.00    +0.121 C 
ATOM     16  C   UNL     1       3.184   1.255 -21.998  0.00  0.00    +0.032 C 
ATOM     17  C   UNL     1       1.982   1.377 -21.516  0.00  0.00    +0.007 C 
ATOM     18  C   UNL     1       1.236   1.917 -22.434  0.00  0.00    +0.001 C 
ENDROOT
BRANCH   9  19
ATOM     19  O   UNL     1      -5.574   4.086 -23.579  0.00  0.00    -0.507 OA
ATOM     20  H   UNL     1      -5.924   4.564 -24.304  0.00  0.00    +0.292 HD
ENDBRANCH   9  19
BRANCH  15  21
ATOM     21  O   UNL     1       4.200   1.764 -24.016  0.00  0.00    -0.391 OA
ATOM     22  H   UNL     1       4.512   0.863 -24.195  0.00  0.00    +0.210 HD
ENDBRANCH  15  21
TORSDOF 2
ENDMDL
MODEL 5
REMARK VINA RESULT:    -9.923      1.036      2.612
REMARK INTER + INTRA:         -10.504
REMARK INTER:                 -10.504
REMARK INTRA:                   0.000
REMARK UNBOUND:                 0.000
REMARK  Name = ZINC000003978002
REMARK  3 active torsions:
REMARK  status: ('A' for Active; 'I' for Inactive)
REMARK    1  A    between atoms: C_1  and  C_2
REMARK    2  A    between atoms: C_9  and  O_10
REMARK    3  A    between atoms: C_19  and  O_20
REMARK                            x       y       z     vdW  Elec       q    Type
REMARK                         _______ _______ _______ _____ _____    ______ ____
ROOT
ATOM      1  C   UNL     1      -3.374   2.658 -21.743  0.00  0.00    +0.014 C 
ATOM      2  C   UNL     1      -2.560   2.920 -22.722  0.00  0.00    -0.003 C 
ATOM      3  C   UNL     1      -2.010   2.275 -21.736  0.00  0.00    +0.010 C 
ATOM      4  C   UNL     1      -0.752   1.952 -21.791  0.00  0.00    +0.009 C 
ATOM      5  C   UNL     1      -0.044   2.275 -22.832  0.00  0.00    +0.023 C 
ATOM      6  C   UNL     1       1.214   1.953 -22.888  0.00  0.00    -0.041 A 
ATOM      7  C   UNL     1       1.764   1.308 -21.903  0.00  0.00    +0.008 A 
ATOM      8  C   UNL     1       3.022   0.985 -21.958  0.00  0.00    +0.046 A 
ATOM      9  C   UNL     1       3.731   1.308 -22.999  0.00  0.00    +0.117 A 
ATOM     10  C   UNL     1       3.181   1.954 -23.985  0.00  0.00    +0.049 A 
ATOM     11  C   UNL     1       1.923   2.276 -23.929  0.00  0.00    -0.040 A 
ATOM     12  C   UNL     1       1.372   2.921 -24.915  0.00  0.00    +0.036 C 
ATOM     13  C   UNL     1       0.114   3.244 -24.859  0.00  0.00    +0.009 C 
ATOM     14  C   UNL     1      -0.594   2.921 -23.819  0.00  0.00    +0.000 C 
ATOM     15  C   UNL     1      -3.772   3.352 -22.910  0.00  0.00    +0.121 C 
ATOM     16  C   UNL     1      -3.812   3.942 -24.069  0.00  0.00    +0.032 C 
ATOM     17  C   UNL     1      -2.625   3.874 -24.595  0.00  0.00    +0.007 C 
ATOM     18  C   UNL     1      -1.852   3.243 -23.763  0.00  0.00    +0.001 C 
ENDROOT
BRANCH   9  19
ATOM     19  O   UNL     1       4.989   0.986 -23.054  0.00  0.00    -0.507 OA
ATOM     20  H   UNL     1       5.333   0.573 -23.821  0.00  0.00    +0.292 HD
ENDBRANCH   9  19
BRANCH  15  21
ATOM     21  O   UNL     1      -4.768   3.217 -22.087  0.00  0.00    -0.391 OA
ATOM     22  H   UNL     1      -5.514   2.799 -22.546  0.00  0.00    +0.210 HD
ENDBRANCH  15  21
TORSDOF 2
ENDMDL
MODEL 6
REMARK VINA RESULT:    -9.678      1.035      1.447
REMARK INTER + INTRA:         -10.244
REMARK INTER:                 -10.244
REMARK INTRA:                   0.000
REMARK UNBOUND:                 0.000
REMARK  Name = ZINC000003978002
REMARK  3 active torsions:
REMARK  status: ('A' for Active; 'I' for Inactive)
REMARK    1  A    between atoms: C_1  and  C_2
REMARK    2  A    between atoms: C_9  and  O_10
REMARK    3  A    between atoms: C_19  and  O_20
REMARK                            x       y       z     vdW  Elec       q    Type
REMARK                         _______ _______ _______ _____ _____    ______ ____
ROOT
ATOM      1  C   UNL     1      -3.117   3.494 -24.181  0.00  0.00    +0.014 C 
ATOM      2  C   UNL     1      -2.473   2.992 -23.170  0.00  0.00    -0.003 C 
ATOM      3  C   UNL     1      -1.735   3.184 -24.223  0.00  0.00    +0.010 C 
ATOM      4  C   UNL     1      -0.473   2.878 -24.198  0.00  0.00    +0.009 C 
ATOM      5  C   UNL     1       0.054   2.379 -23.119  0.00  0.00    +0.023 C 
ATOM      6  C   UNL     1       1.317   2.073 -23.093  0.00  0.00    -0.041 A 
ATOM      7  C   UNL     1       2.053   2.265 -24.146  0.00  0.00    +0.008 A 
ATOM      8  C   UNL     1       3.317   1.959 -24.121  0.00  0.00    +0.046 A 
ATOM      9  C   UNL     1       3.844   1.460 -23.041  0.00  0.00    +0.117 A 
ATOM     10  C   UNL     1       3.106   1.268 -21.988  0.00  0.00    +0.049 A 
ATOM     11  C   UNL     1       1.843   1.574 -22.014  0.00  0.00    -0.040 A 
ATOM     12  C   UNL     1       1.105   1.382 -20.960  0.00  0.00    +0.036 C 
ATOM     13  C   UNL     1      -0.158   1.689 -20.986  0.00  0.00    +0.009 C 
ATOM     14  C   UNL     1      -0.684   2.187 -22.065  0.00  0.00    +0.000 C 
ATOM     15  C   UNL     1      -3.734   3.208 -22.939  0.00  0.00    +0.121 C 
ATOM     16  C   UNL     1      -3.987   2.844 -21.717  0.00  0.00    +0.032 C 
ATOM     17  C   UNL     1      -2.882   2.402 -21.193  0.00  0.00    +0.007 C 
ATOM     18  C   UNL     1      -1.947   2.493 -22.091  0.00  0.00    +0.001 C 
ENDROOT
BRANCH   9  19
ATOM     19  O   UNL     1       5.106   1.154 -23.016  0.00  0.00    -0.507 OA
ATOM     20  H   UNL     1       5.744   1.770 -23.318  0.00  0.00    +0.292 HD
ENDBRANCH   9  19
BRANCH  15  21
ATOM     21  O   UNL     1      -4.591   3.703 -23.782  0.00  0.00    -0.391 OA
ATOM     22  H   UNL     1      -5.382   3.996 -23.303  0.00  0.00    +0.210 HD
ENDBRANCH  15  21
TORSDOF 2
ENDMDL
MODEL 7
REMARK VINA RESULT:    -9.067      1.869      6.338
REMARK INTER + INTRA:          -9.597
REMARK INTER:                  -9.597
REMARK INTRA:                   0.000
REMARK UNBOUND:                 0.000
REMARK  Name = ZINC000003978002
REMARK  3 active torsions:
REMARK  status: ('A' for Active; 'I' for Inactive)
REMARK    1  A    between atoms: C_1  and  C_2
REMARK    2  A    between atoms: C_9  and  O_10
REMARK    3  A    between atoms: C_19  and  O_20
REMARK                            x       y       z     vdW  Elec       q    Type
REMARK                         _______ _______ _______ _____ _____    ______ ____
ROOT
ATOM      1  C   UNL     1       4.896   2.571 -23.169  0.00  0.00    +0.014 C 
ATOM      2  C   UNL     1       3.868   2.093 -22.532  0.00  0.00    -0.003 C 
ATOM      3  C   UNL     1       3.563   2.960 -23.452  0.00  0.00    +0.010 C 
ATOM      4  C   UNL     1       2.320   3.274 -23.663  0.00  0.00    +0.009 C 
ATOM      5  C   UNL     1       1.381   2.722 -22.954  0.00  0.00    +0.023 C 
ATOM      6  C   UNL     1       0.137   3.037 -23.164  0.00  0.00    -0.041 A 
ATOM      7  C   UNL     1      -0.167   3.903 -24.084  0.00  0.00    +0.008 A 
ATOM      8  C   UNL     1      -1.411   4.218 -24.295  0.00  0.00    +0.046 A 
ATOM      9  C   UNL     1      -2.351   3.666 -23.585  0.00  0.00    +0.117 A 
ATOM     10  C   UNL     1      -2.046   2.799 -22.665  0.00  0.00    +0.049 A 
ATOM     11  C   UNL     1      -0.802   2.485 -22.455  0.00  0.00    -0.040 A 
ATOM     12  C   UNL     1      -0.497   1.618 -21.535  0.00  0.00    +0.036 C 
ATOM     13  C   UNL     1       0.747   1.303 -21.325  0.00  0.00    +0.009 C 
ATOM     14  C   UNL     1       1.685   1.855 -22.033  0.00  0.00    +0.000 C 
ATOM     15  C   UNL     1       5.008   1.615 -22.131  0.00  0.00    +0.121 C 
ATOM     16  C   UNL     1       4.774   0.767 -21.173  0.00  0.00    +0.032 C 
ATOM     17  C   UNL     1       3.488   0.722 -20.983  0.00  0.00    +0.007 C 
ATOM     18  C   UNL     1       2.929   1.541 -21.823  0.00  0.00    +0.001 C 
ENDROOT
BRANCH   9  19
ATOM     19  O   UNL     1      -3.594   3.980 -23.796  0.00  0.00    -0.507 OA
ATOM     20  H   UNL     1      -4.278   3.442 -23.453  0.00  0.00    +0.292 HD
ENDBRANCH   9  19
BRANCH  15  21
ATOM     21  O   UNL     1       6.178   1.929 -22.603  0.00  0.00    -0.391 OA
ATOM     22  H   UNL     1       6.069   2.468 -23.403  0.00  0.00    +0.210 HD
ENDBRANCH  15  21
TORSDOF 2
ENDMDL
