MODEL 1
REMARK VINA RESULT:    -9.775      0.000      0.000
REMARK INTER + INTRA:         -10.060
REMARK INTER:                 -10.060
REMARK INTRA:                   0.000
REMARK UNBOUND:                 0.000
REMARK  Name = ZINC000004104715
REMARK  5 active torsions:
REMARK  status: ('A' for Active; 'I' for Inactive)
REMARK    1  A    between atoms: C_1  and  C_2
REMARK    2  A    between atoms: C_2  and  C_3
REMARK    3  A    between atoms: C_9  and  C_10
REMARK    4  A    between atoms: C_13  and  C_14
REMARK    5  A    between atoms: C_13  and  O_15
REMARK                            x       y       z     vdW  Elec       q    Type
REMARK                         _______ _______ _______ _____ _____    ______ ____
ROOT
ATOM      1  C   UNL     1      -0.085   1.871 -21.382  0.00  0.00    +0.011 C 
ATOM      2  C   UNL     1      -0.867   2.281 -22.336  0.00  0.00    -0.028 C 
ATOM      3  C   UNL     1      -1.971   2.445 -21.670  0.00  0.00    -0.001 C 
ATOM      4  C   UNL     1      -2.973   2.549 -20.849  0.00  0.00    +0.012 C 
ATOM      5  C   UNL     1      -4.189   2.932 -21.100  0.00  0.00    +0.075 C 
ATOM      6  C   UNL     1      -4.704   3.307 -22.233  0.00  0.00    +0.140 C 
ATOM      7  C   UNL     1      -4.130   3.390 -23.396  0.00  0.00    +0.032 C 
ATOM      8  C   UNL     1      -4.744   3.780 -24.473  0.00  0.00    +0.017 C 
ATOM      9  C   UNL     1      -3.892   3.750 -25.455  0.00  0.00    +0.036 C 
ATOM     10  C   UNL     1      -2.751   3.342 -24.985  0.00  0.00    +0.067 C 
ATOM     11  C   UNL     1      -2.350   3.486 -26.214  0.00  0.00    +0.041 C 
ATOM     12  C   UNL     1      -5.384   3.713 -23.305  0.00  0.00    +0.019 C 
ATOM     13  C   UNL     1      -2.897   3.119 -23.713  0.00  0.00    +0.037 C 
ATOM     14  O   UNL     1      -5.960   3.642 -22.199  0.00  0.00    -0.297 OA
ATOM     15  C   UNL     1      -0.034   2.260 -23.334  0.00  0.00    +0.011 C 
ATOM     16  C   UNL     1      -1.937   2.698 -22.945  0.00  0.00    +0.005 C 
ENDROOT
BRANCH  10  17
ATOM     17  O   UNL     1      -1.526   2.963 -24.772  0.00  0.00    -0.389 OA
ATOM     18  H   UNL     1      -0.943   3.738 -24.779  0.00  0.00    +0.210 HD
ENDBRANCH  10  17
TORSDOF 1
ENDMDL
MODEL 2
REMARK VINA RESULT:    -9.722      1.447      3.081
REMARK INTER + INTRA:         -10.006
REMARK INTER:                 -10.006
REMARK INTRA:                   0.000
REMARK UNBOUND:                 0.000
REMARK  Name = ZINC000004104715
REMARK  5 active torsions:
REMARK  status: ('A' for Active; 'I' for Inactive)
REMARK    1  A    between atoms: C_1  and  C_2
REMARK    2  A    between atoms: C_2  and  C_3
REMARK    3  A    between atoms: C_9  and  C_10
REMARK    4  A    between atoms: C_13  and  C_14
REMARK    5  A    between atoms: C_13  and  O_15
REMARK                            x       y       z     vdW  Elec       q    Type
REMARK                         _______ _______ _______ _____ _____    ______ ____
ROOT
ATOM      1  C   UNL     1       0.456   2.237 -23.275  0.00  0.00    +0.011 C 
ATOM      2  C   UNL     1      -0.783   2.395 -22.913  0.00  0.00    -0.028 C 
ATOM      3  C   UNL     1      -1.254   2.989 -23.969  0.00  0.00    -0.001 C 
ATOM      4  C   UNL     1      -1.544   3.567 -25.096  0.00  0.00    +0.012 C 
ATOM      5  C   UNL     1      -2.688   4.040 -25.493  0.00  0.00    +0.075 C 
ATOM      6  C   UNL     1      -3.823   4.051 -24.861  0.00  0.00    +0.140 C 
ATOM      7  C   UNL     1      -4.096   3.593 -23.675  0.00  0.00    +0.032 C 
ATOM      8  C   UNL     1      -5.278   3.657 -23.136  0.00  0.00    +0.017 C 
ATOM      9  C   UNL     1      -5.211   3.113 -21.957  0.00  0.00    +0.036 C 
ATOM     10  C   UNL     1      -3.989   2.713 -21.767  0.00  0.00    +0.067 C 
ATOM     11  C   UNL     1      -4.443   2.316 -20.615  0.00  0.00    +0.041 C 
ATOM     12  C   UNL     1      -5.054   4.145 -24.357  0.00  0.00    +0.019 C 
ATOM     13  C   UNL     1      -3.300   3.009 -22.829  0.00  0.00    +0.037 C 
ATOM     14  O   UNL     1      -4.819   4.593 -25.498  0.00  0.00    -0.297 OA
ATOM     15  C   UNL     1      -0.741   1.857 -21.730  0.00  0.00    +0.011 C 
ATOM     16  C   UNL     1      -2.035   2.740 -22.960  0.00  0.00    +0.005 C 
ENDROOT
BRANCH  10  17
ATOM     17  O   UNL     1      -2.861   2.229 -21.337  0.00  0.00    -0.389 OA
ATOM     18  H   UNL     1      -2.127   2.671 -21.789  0.00  0.00    +0.210 HD
ENDBRANCH  10  17
TORSDOF 1
ENDMDL
MODEL 3
REMARK VINA RESULT:    -9.324      1.220      4.311
REMARK INTER + INTRA:          -9.597
REMARK INTER:                  -9.597
REMARK INTRA:                   0.000
REMARK UNBOUND:                 0.000
REMARK  Name = ZINC000004104715
REMARK  5 active torsions:
REMARK  status: ('A' for Active; 'I' for Inactive)
REMARK    1  A    between atoms: C_1  and  C_2
REMARK    2  A    between atoms: C_2  and  C_3
REMARK    3  A    between atoms: C_9  and  C_10
REMARK    4  A    between atoms: C_13  and  C_14
REMARK    5  A    between atoms: C_13  and  O_15
REMARK                            x       y       z     vdW  Elec       q    Type
REMARK                         _______ _______ _______ _____ _____    ______ ____
ROOT
ATOM      1  C   UNL     1      -3.307   3.743 -26.845  0.00  0.00    +0.011 C 
ATOM      2  C   UNL     1      -3.561   3.548 -25.585  0.00  0.00    -0.028 C 
ATOM      3  C   UNL     1      -2.365   3.287 -25.149  0.00  0.00    -0.001 C 
ATOM      4  C   UNL     1      -1.111   3.053 -24.898  0.00  0.00    +0.012 C 
ATOM      5  C   UNL     1      -0.554   2.759 -23.762  0.00  0.00    +0.075 C 
ATOM      6  C   UNL     1      -1.112   2.626 -22.596  0.00  0.00    +0.140 C 
ATOM      7  C   UNL     1      -2.366   2.756 -22.277  0.00  0.00    +0.032 C 
ATOM      8  C   UNL     1      -2.818   2.600 -21.069  0.00  0.00    +0.017 C 
ATOM      9  C   UNL     1      -4.104   2.797 -21.093  0.00  0.00    +0.036 C 
ATOM     10  C   UNL     1      -4.445   3.075 -22.316  0.00  0.00    +0.067 C 
ATOM     11  C   UNL     1      -5.642   3.162 -21.816  0.00  0.00    +0.041 C 
ATOM     12  C   UNL     1      -1.520   2.455 -21.338  0.00  0.00    +0.019 C 
ATOM     13  C   UNL     1      -3.372   3.049 -23.048  0.00  0.00    +0.037 C 
ATOM     14  O   UNL     1      -0.310   2.325 -21.617  0.00  0.00    -0.297 OA
ATOM     15  C   UNL     1      -4.847   3.740 -25.583  0.00  0.00    +0.011 C 
ATOM     16  C   UNL     1      -3.371   3.286 -24.326  0.00  0.00    +0.005 C 
ENDROOT
BRANCH  10  17
ATOM     17  O   UNL     1      -5.037   3.371 -23.435  0.00  0.00    -0.389 OA
ATOM     18  H   UNL     1      -5.994   3.253 -23.334  0.00  0.00    +0.210 HD
ENDBRANCH  10  17
TORSDOF 1
ENDMDL
MODEL 4
REMARK VINA RESULT:    -9.030      1.461      2.655
REMARK INTER + INTRA:          -9.294
REMARK INTER:                  -9.294
REMARK INTRA:                   0.000
REMARK UNBOUND:                 0.000
REMARK  Name = ZINC000004104715
REMARK  5 active torsions:
REMARK  status: ('A' for Active; 'I' for Inactive)
REMARK    1  A    between atoms: C_1  and  C_2
REMARK    2  A    between atoms: C_2  and  C_3
REMARK    3  A    between atoms: C_9  and  C_10
REMARK    4  A    between atoms: C_13  and  C_14
REMARK    5  A    between atoms: C_13  and  O_15
REMARK                            x       y       z     vdW  Elec       q    Type
REMARK                         _______ _______ _______ _____ _____    ______ ____
ROOT
ATOM      1  C   UNL     1      -3.585   3.156 -19.955  0.00  0.00    +0.011 C 
ATOM      2  C   UNL     1      -3.010   3.207 -21.120  0.00  0.00    -0.028 C 
ATOM      3  C   UNL     1      -4.046   3.418 -21.876  0.00  0.00    -0.001 C 
ATOM      4  C   UNL     1      -5.186   3.624 -22.466  0.00  0.00    +0.012 C 
ATOM      5  C   UNL     1      -5.424   3.788 -23.733  0.00  0.00    +0.075 C 
ATOM      6  C   UNL     1      -4.581   3.787 -24.722  0.00  0.00    +0.140 C 
ATOM      7  C   UNL     1      -3.292   3.621 -24.690  0.00  0.00    +0.032 C 
ATOM      8  C   UNL     1      -2.540   3.639 -25.750  0.00  0.00    +0.017 C 
ATOM      9  C   UNL     1      -1.311   3.445 -25.374  0.00  0.00    +0.036 C 
ATOM     10  C   UNL     1      -1.303   3.307 -24.081  0.00  0.00    +0.067 C 
ATOM     11  C   UNL     1      -0.021   3.162 -24.242  0.00  0.00    +0.041 C 
ATOM     12  C   UNL     1      -3.859   3.815 -25.843  0.00  0.00    +0.019 C 
ATOM     13  C   UNL     1      -2.527   3.416 -23.658  0.00  0.00    +0.037 C 
ATOM     14  O   UNL     1      -5.096   3.977 -25.902  0.00  0.00    -0.297 OA
ATOM     15  C   UNL     1      -1.773   3.014 -20.768  0.00  0.00    +0.011 C 
ATOM     16  C   UNL     1      -2.863   3.325 -22.406  0.00  0.00    +0.005 C 
ENDROOT
BRANCH  10  17
ATOM     17  O   UNL     1      -1.027   3.138 -22.822  0.00  0.00    -0.389 OA
ATOM     18  H   UNL     1      -0.267   2.542 -22.735  0.00  0.00    +0.210 HD
ENDBRANCH  10  17
TORSDOF 1
ENDMDL
MODEL 5
REMARK VINA RESULT:    -9.016      1.201      2.113
REMARK INTER + INTRA:          -9.279
REMARK INTER:                  -9.279
REMARK INTRA:                   0.000
REMARK UNBOUND:                 0.000
REMARK  Name = ZINC000004104715
REMARK  5 active torsions:
REMARK  status: ('A' for Active; 'I' for Inactive)
REMARK    1  A    between atoms: C_1  and  C_2
REMARK    2  A    between atoms: C_2  and  C_3
REMARK    3  A    between atoms: C_9  and  C_10
REMARK    4  A    between atoms: C_13  and  C_14
REMARK    5  A    between atoms: C_13  and  O_15
REMARK                            x       y       z     vdW  Elec       q    Type
REMARK                         _______ _______ _______ _____ _____    ______ ____
ROOT
ATOM      1  C   UNL     1       0.557   3.003 -24.359  0.00  0.00    +0.011 C 
ATOM      2  C   UNL     1      -0.727   3.203 -24.309  0.00  0.00    -0.028 C 
ATOM      3  C   UNL     1      -0.959   2.876 -23.072  0.00  0.00    -0.001 C 
ATOM      4  C   UNL     1      -0.999   2.513 -21.825  0.00  0.00    +0.012 C 
ATOM      5  C   UNL     1      -2.028   2.451 -21.032  0.00  0.00    +0.075 C 
ATOM      6  C   UNL     1      -3.269   2.737 -21.291  0.00  0.00    +0.140 C 
ATOM      7  C   UNL     1      -3.789   3.154 -22.407  0.00  0.00    +0.032 C 
ATOM      8  C   UNL     1      -5.055   3.411 -22.556  0.00  0.00    +0.017 C 
ATOM      9  C   UNL     1      -5.243   3.805 -23.781  0.00  0.00    +0.036 C 
ATOM     10  C   UNL     1      -4.094   3.792 -24.389  0.00  0.00    +0.067 C 
ATOM     11  C   UNL     1      -4.784   4.210 -25.409  0.00  0.00    +0.041 C 
ATOM     12  C   UNL     1      -4.575   2.984 -21.387  0.00  0.00    +0.019 C 
ATOM     13  C   UNL     1      -3.195   3.390 -23.540  0.00  0.00    +0.037 C 
ATOM     14  O   UNL     1      -4.101   2.584 -20.304  0.00  0.00    -0.297 OA
ATOM     15  C   UNL     1      -0.941   3.600 -25.528  0.00  0.00    +0.011 C 
ATOM     16  C   UNL     1      -1.936   3.266 -23.836  0.00  0.00    +0.005 C 
ENDROOT
BRANCH  10  17
ATOM     17  O   UNL     1      -3.089   3.867 -25.210  0.00  0.00    -0.389 OA
ATOM     18  H   UNL     1      -3.409   4.123 -26.089  0.00  0.00    +0.210 HD
ENDBRANCH  10  17
TORSDOF 1
ENDMDL
MODEL 6
REMARK VINA RESULT:    -8.292      1.145      3.228
REMARK INTER + INTRA:          -8.534
REMARK INTER:                  -8.534
REMARK INTRA:                   0.000
REMARK UNBOUND:                 0.000
REMARK  Name = ZINC000004104715
REMARK  5 active torsions:
REMARK  status: ('A' for Active; 'I' for Inactive)
REMARK    1  A    between atoms: C_1  and  C_2
REMARK    2  A    between atoms: C_2  and  C_3
REMARK    3  A    between atoms: C_9  and  C_10
REMARK    4  A    between atoms: C_13  and  C_14
REMARK    5  A    between atoms: C_13  and  O_15
REMARK                            x       y       z     vdW  Elec       q    Type
REMARK                         _______ _______ _______ _____ _____    ______ ____
ROOT
ATOM      1  C   UNL     1      -0.391   3.730 -26.050  0.00  0.00    +0.011 C 
ATOM      2  C   UNL     1      -0.935   3.481 -24.895  0.00  0.00    -0.028 C 
ATOM      3  C   UNL     1      -2.177   3.750 -25.168  0.00  0.00    -0.001 C 
ATOM      4  C   UNL     1      -3.356   4.060 -25.619  0.00  0.00    +0.012 C 
ATOM      5  C   UNL     1      -4.493   4.052 -24.988  0.00  0.00    +0.075 C 
ATOM      6  C   UNL     1      -4.731   3.733 -23.751  0.00  0.00    +0.140 C 
ATOM      7  C   UNL     1      -3.892   3.342 -22.838  0.00  0.00    +0.032 C 
ATOM      8  C   UNL     1      -4.243   3.045 -21.622  0.00  0.00    +0.017 C 
ATOM      9  C   UNL     1      -3.174   2.694 -20.971  0.00  0.00    +0.036 C 
ATOM     10  C   UNL     1      -2.163   2.773 -21.784  0.00  0.00    +0.067 C 
ATOM     11  C   UNL     1      -1.479   2.372 -20.753  0.00  0.00    +0.041 C 
ATOM     12  C   UNL     1      -5.147   3.441 -22.518  0.00  0.00    +0.019 C 
ATOM     13  C   UNL     1      -2.606   3.173 -22.938  0.00  0.00    +0.037 C 
ATOM     14  O   UNL     1      -5.974   3.815 -23.376  0.00  0.00    -0.297 OA
ATOM     15  C   UNL     1       0.120   3.126 -24.223  0.00  0.00    +0.011 C 
ATOM     16  C   UNL     1      -1.843   3.355 -23.975  0.00  0.00    +0.005 C 
ENDROOT
BRANCH  10  17
ATOM     17  O   UNL     1      -1.008   2.769 -22.382  0.00  0.00    -0.389 OA
ATOM     18  H   UNL     1      -1.139   2.655 -23.335  0.00  0.00    +0.210 HD
ENDBRANCH  10  17
TORSDOF 1
ENDMDL
MODEL 7
REMARK VINA RESULT:    -8.253      3.040      5.295
REMARK INTER + INTRA:          -8.495
REMARK INTER:                  -8.495
REMARK INTRA:                   0.000
REMARK UNBOUND:                 0.000
REMARK  Name = ZINC000004104715
REMARK  5 active torsions:
REMARK  status: ('A' for Active; 'I' for Inactive)
REMARK    1  A    between atoms: C_1  and  C_2
REMARK    2  A    between atoms: C_2  and  C_3
REMARK    3  A    between atoms: C_9  and  C_10
REMARK    4  A    between atoms: C_13  and  C_14
REMARK    5  A    between atoms: C_13  and  O_15
REMARK                            x       y       z     vdW  Elec       q    Type
REMARK                         _______ _______ _______ _____ _____    ______ ____
ROOT
ATOM      1  C   UNL     1      -2.776   2.430 -21.569  0.00  0.00    +0.011 C 
ATOM      2  C   UNL     1      -1.518   2.283 -21.866  0.00  0.00    -0.028 C 
ATOM      3  C   UNL     1      -1.254   3.469 -22.328  0.00  0.00    -0.001 C 
ATOM      4  C   UNL     1      -1.177   4.694 -22.753  0.00  0.00    +0.012 C 
ATOM      5  C   UNL     1      -0.147   5.319 -23.241  0.00  0.00    +0.075 C 
ATOM      6  C   UNL     1       1.060   4.872 -23.426  0.00  0.00    +0.140 C 
ATOM      7  C   UNL     1       1.535   3.690 -23.167  0.00  0.00    +0.032 C 
ATOM      8  C   UNL     1       2.768   3.348 -23.394  0.00  0.00    +0.017 C 
ATOM      9  C   UNL     1       2.915   2.109 -23.027  0.00  0.00    +0.036 C 
ATOM     10  C   UNL     1       1.773   1.686 -22.573  0.00  0.00    +0.067 C 
ATOM     11  C   UNL     1       2.417   0.572 -22.384  0.00  0.00    +0.041 C 
ATOM     12  C   UNL     1       2.335   4.577 -23.679  0.00  0.00    +0.019 C 
ATOM     13  C   UNL     1       0.920   2.662 -22.660  0.00  0.00    +0.037 C 
ATOM     14  O   UNL     1       1.904   5.720 -23.936  0.00  0.00    -0.297 OA
ATOM     15  C   UNL     1      -1.346   1.045 -21.506  0.00  0.00    +0.011 C 
ATOM     16  C   UNL     1      -0.322   2.564 -22.287  0.00  0.00    +0.005 C 
ENDROOT
BRANCH  10  17
ATOM     17  O   UNL     1       0.765   1.029 -22.080  0.00  0.00    -0.389 OA
ATOM     18  H   UNL     1       0.967   0.081 -22.080  0.00  0.00    +0.210 HD
ENDBRANCH  10  17
TORSDOF 1
ENDMDL
MODEL 8
REMARK VINA RESULT:    -8.094      1.984      3.080
REMARK INTER + INTRA:          -8.330
REMARK INTER:                  -8.330
REMARK INTRA:                   0.000
REMARK UNBOUND:                 0.000
REMARK  Name = ZINC000004104715
REMARK  5 active torsions:
REMARK  status: ('A' for Active; 'I' for Inactive)
REMARK    1  A    between atoms: C_1  and  C_2
REMARK    2  A    between atoms: C_2  and  C_3
REMARK    3  A    between atoms: C_9  and  C_10
REMARK    4  A    between atoms: C_13  and  C_14
REMARK    5  A    between atoms: C_13  and  O_15
REMARK                            x       y       z     vdW  Elec       q    Type
REMARK                         _______ _______ _______ _____ _____    ______ ____
ROOT
ATOM      1  C   UNL     1       2.538   1.224 -20.985  0.00  0.00    +0.011 C 
ATOM      2  C   UNL     1       1.943   1.820 -21.976  0.00  0.00    -0.028 C 
ATOM      3  C   UNL     1       0.703   1.686 -21.609  0.00  0.00    -0.001 C 
ATOM      4  C   UNL     1      -0.465   1.459 -21.086  0.00  0.00    +0.012 C 
ATOM      5  C   UNL     1      -1.636   1.789 -21.545  0.00  0.00    +0.075 C 
ATOM      6  C   UNL     1      -1.927   2.427 -22.639  0.00  0.00    +0.140 C 
ATOM      7  C   UNL     1      -1.120   2.893 -23.546  0.00  0.00    +0.032 C 
ATOM      8  C   UNL     1      -1.524   3.520 -24.610  0.00  0.00    +0.017 C 
ATOM      9  C   UNL     1      -0.474   3.851 -25.303  0.00  0.00    +0.036 C 
ATOM     10  C   UNL     1       0.578   3.428 -24.667  0.00  0.00    +0.067 C 
ATOM     11  C   UNL     1       1.224   3.955 -25.665  0.00  0.00    +0.041 C 
ATOM     12  C   UNL     1      -2.397   3.063 -23.712  0.00  0.00    +0.019 C 
ATOM     13  C   UNL     1       0.179   2.835 -23.581  0.00  0.00    +0.037 C 
ATOM     14  O   UNL     1      -3.194   2.625 -22.857  0.00  0.00    -0.297 OA
ATOM     15  C   UNL     1       2.977   2.162 -22.687  0.00  0.00    +0.011 C 
ATOM     16  C   UNL     1       0.990   2.298 -22.719  0.00  0.00    +0.005 C 
ENDROOT
BRANCH  10  17
ATOM     17  O   UNL     1       1.765   3.115 -24.240  0.00  0.00    -0.389 OA
ATOM     18  H   UNL     1       2.216   3.914 -23.926  0.00  0.00    +0.210 HD
ENDBRANCH  10  17
TORSDOF 1
ENDMDL
MODEL 9
REMARK VINA RESULT:    -7.623      3.054      4.807
REMARK INTER + INTRA:          -7.846
REMARK INTER:                  -7.846
REMARK INTRA:                   0.000
REMARK UNBOUND:                 0.000
REMARK  Name = ZINC000004104715
REMARK  5 active torsions:
REMARK  status: ('A' for Active; 'I' for Inactive)
REMARK    1  A    between atoms: C_1  and  C_2
REMARK    2  A    between atoms: C_2  and  C_3
REMARK    3  A    between atoms: C_9  and  C_10
REMARK    4  A    between atoms: C_13  and  C_14
REMARK    5  A    between atoms: C_13  and  O_15
REMARK                            x       y       z     vdW  Elec       q    Type
REMARK                         _______ _______ _______ _____ _____    ______ ____
ROOT
ATOM      1  C   UNL     1       4.157   1.639 -22.870  0.00  0.00    +0.011 C 
ATOM      2  C   UNL     1       2.887   1.779 -22.626  0.00  0.00    -0.028 C 
ATOM      3  C   UNL     1       2.698   2.977 -23.093  0.00  0.00    -0.001 C 
ATOM      4  C   UNL     1       2.698   4.172 -23.603  0.00  0.00    +0.012 C 
ATOM      5  C   UNL     1       1.705   5.003 -23.721  0.00  0.00    +0.075 C 
ATOM      6  C   UNL     1       0.468   4.844 -23.357  0.00  0.00    +0.140 C 
ATOM      7  C   UNL     1      -0.084   3.815 -22.786  0.00  0.00    +0.032 C 
ATOM      8  C   UNL     1      -1.342   3.763 -22.463  0.00  0.00    +0.017 C 
ATOM      9  C   UNL     1      -1.568   2.606 -21.914  0.00  0.00    +0.036 C 
ATOM     10  C   UNL     1      -0.450   1.943 -21.898  0.00  0.00    +0.067 C 
ATOM     11  C   UNL     1      -1.166   1.018 -21.331  0.00  0.00    +0.041 C 
ATOM     12  C   UNL     1      -0.829   4.847 -23.048  0.00  0.00    +0.019 C 
ATOM     13  C   UNL     1       0.467   2.690 -22.437  0.00  0.00    +0.037 C 
ATOM     14  O   UNL     1      -0.324   5.848 -23.597  0.00  0.00    -0.297 OA
ATOM     15  C   UNL     1       2.636   0.629 -22.074  0.00  0.00    +0.011 C 
ATOM     16  C   UNL     1       1.705   2.317 -22.573  0.00  0.00    +0.005 C 
ENDROOT
BRANCH  10  17
ATOM     17  O   UNL     1       0.519   1.086 -21.764  0.00  0.00    -0.389 OA
ATOM     18  H   UNL     1       0.772   1.030 -20.830  0.00  0.00    +0.210 HD
ENDBRANCH  10  17
TORSDOF 1
ENDMDL
