MODEL 1
REMARK VINA RESULT:    -9.030      0.000      0.000
REMARK INTER + INTRA:         -10.433
REMARK INTER:                 -10.594
REMARK INTRA:                   0.161
REMARK UNBOUND:                 0.972
REMARK  Name = ZINC000000338309
REMARK  9 active torsions:
REMARK  status: ('A' for Active; 'I' for Inactive)
REMARK    1  A    between atoms: C_1  and  O_2
REMARK    2  A    between atoms: O_2  and  C_3
REMARK    3  A    between atoms: C_13  and  C_14
REMARK    4  A    between atoms: C_14  and  C_15
REMARK    5  A    between atoms: C_15  and  O_16
REMARK    6  A    between atoms: C_15  and  C_17
REMARK    7  A    between atoms: C_17  and  C_18
REMARK    8  A    between atoms: C_17  and  C_19
REMARK    9  A    between atoms: C_17  and  O_20
REMARK                            x       y       z     vdW  Elec       q    Type
REMARK                         _______ _______ _______ _____ _____    ______ ____
ROOT
ATOM      1  C   UNL     1      -1.062   2.832 -22.126  0.00  0.00    +0.127 A 
ATOM      2  C   UNL     1      -1.802   2.202 -21.262  0.00  0.00    +0.047 A 
ATOM      3  C   UNL     1      -3.098   2.279 -21.339  0.00  0.00    +0.015 A 
ATOM      4  C   UNL     1      -3.653   2.986 -22.277  0.00  0.00    +0.018 A 
ATOM      5  C   UNL     1      -4.949   3.064 -22.354  0.00  0.00    +0.018 A 
ATOM      6  C   UNL     1      -5.504   3.771 -23.292  0.00  0.00    +0.092 A 
ATOM      7  C   UNL     1      -4.764   4.401 -24.155  0.00  0.00    +0.337 A 
ATOM      8  O   UNL     1      -3.467   4.324 -24.079  0.00  0.00    -0.422 OA
ATOM      9  O   UNL     1      -5.318   5.109 -25.093  0.00  0.00    -0.245 OA
ATOM     10  C   UNL     1      -2.912   3.617 -23.140  0.00  0.00    +0.146 A 
ATOM     11  C   UNL     1      -1.617   3.540 -23.065  0.00  0.00    +0.040 A 
ENDROOT
BRANCH   1  13
ATOM     12  C   UNL     1       0.796   1.653 -21.650  0.00  0.00    +0.277 C 
ATOM     13  O   UNL     1       0.233   2.755 -22.049  0.00  0.00    -0.495 OA
ENDBRANCH   1  13
BRANCH  11  14
ATOM     14  C   UNL     1      -0.877   4.170 -23.927  0.00  0.00    +0.076 C 
BRANCH  14  15
ATOM     15  C   UNL     1      -0.452   3.555 -24.991  0.00  0.00    +0.150 C 
BRANCH  15  16
ATOM     16  C   UNL     1       0.825   3.424 -25.199  0.00  0.00    +0.087 C 
ATOM     17  C   UNL     1       1.554   4.471 -25.449  0.00  0.00    +0.043 C 
ATOM     18  C   UNL     1       1.877   2.668 -25.296  0.00  0.00    +0.043 C 
BRANCH  16  19
ATOM     19  O   UNL     1       0.720   2.139 -25.032  0.00  0.00    -0.387 OA
ATOM     20  H   UNL     1       1.182   1.880 -24.220  0.00  0.00    +0.210 HD
ENDBRANCH  16  19
ENDBRANCH  15  16
BRANCH  15  21
ATOM     21  O   UNL     1      -1.304   3.072 -25.847  0.00  0.00    -0.389 OA
ATOM     22  H   UNL     1      -1.941   3.761 -26.092  0.00  0.00    +0.210 HD
ENDBRANCH  15  21
ENDBRANCH  14  15
ENDBRANCH  11  14
TORSDOF 6
ENDMDL
MODEL 2
REMARK VINA RESULT:    -8.760      1.796      3.353
REMARK INTER + INTRA:         -10.092
REMARK INTER:                 -10.389
REMARK INTRA:                   0.298
REMARK UNBOUND:                 0.972
REMARK  Name = ZINC000000338309
REMARK  9 active torsions:
REMARK  status: ('A' for Active; 'I' for Inactive)
REMARK    1  A    between atoms: C_1  and  O_2
REMARK    2  A    between atoms: O_2  and  C_3
REMARK    3  A    between atoms: C_13  and  C_14
REMARK    4  A    between atoms: C_14  and  C_15
REMARK    5  A    between atoms: C_15  and  O_16
REMARK    6  A    between atoms: C_15  and  C_17
REMARK    7  A    between atoms: C_17  and  C_18
REMARK    8  A    between atoms: C_17  and  C_19
REMARK    9  A    between atoms: C_17  and  O_20
REMARK                            x       y       z     vdW  Elec       q    Type
REMARK                         _______ _______ _______ _____ _____    ______ ____
ROOT
ATOM      1  C   UNL     1      -3.340   3.772 -25.422  0.00  0.00    +0.127 A 
ATOM      2  C   UNL     1      -4.630   3.618 -25.483  0.00  0.00    +0.047 A 
ATOM      3  C   UNL     1      -5.321   3.501 -24.388  0.00  0.00    +0.015 A 
ATOM      4  C   UNL     1      -4.724   3.539 -23.234  0.00  0.00    +0.018 A 
ATOM      5  C   UNL     1      -5.415   3.423 -22.139  0.00  0.00    +0.018 A 
ATOM      6  C   UNL     1      -4.818   3.461 -20.985  0.00  0.00    +0.092 A 
ATOM      7  C   UNL     1      -3.529   3.615 -20.926  0.00  0.00    +0.337 A 
ATOM      8  O   UNL     1      -2.836   3.732 -22.021  0.00  0.00    -0.422 OA
ATOM      9  O   UNL     1      -2.931   3.653 -19.772  0.00  0.00    -0.245 OA
ATOM     10  C   UNL     1      -3.434   3.694 -23.175  0.00  0.00    +0.146 A 
ATOM     11  C   UNL     1      -2.742   3.810 -24.269  0.00  0.00    +0.040 A 
ENDROOT
BRANCH   1  13
ATOM     12  C   UNL     1      -3.148   3.485 -27.648  0.00  0.00    +0.277 C 
ATOM     13  O   UNL     1      -2.648   3.888 -26.517  0.00  0.00    -0.495 OA
ENDBRANCH   1  13
BRANCH  11  14
ATOM     14  C   UNL     1      -1.453   3.964 -24.209  0.00  0.00    +0.076 C 
BRANCH  14  15
ATOM     15  C   UNL     1      -0.674   2.924 -24.194  0.00  0.00    +0.150 C 
BRANCH  15  16
ATOM     16  C   UNL     1       0.570   3.038 -24.554  0.00  0.00    +0.087 C 
ATOM     17  C   UNL     1       1.491   3.231 -23.657  0.00  0.00    +0.043 C 
ATOM     18  C   UNL     1       1.475   3.058 -25.487  0.00  0.00    +0.043 C 
BRANCH  16  19
ATOM     19  O   UNL     1       0.225   2.881 -25.797  0.00  0.00    -0.387 OA
ATOM     20  H   UNL     1      -0.452   2.188 -25.860  0.00  0.00    +0.210 HD
ENDBRANCH  16  19
ENDBRANCH  15  16
BRANCH  15  21
ATOM     21  O   UNL     1      -1.139   1.769 -23.818  0.00  0.00    -0.389 OA
ATOM     22  H   UNL     1      -1.263   1.767 -22.857  0.00  0.00    +0.210 HD
ENDBRANCH  15  21
ENDBRANCH  14  15
ENDBRANCH  11  14
TORSDOF 6
ENDMDL
MODEL 3
REMARK VINA RESULT:    -8.486      1.769      3.410
REMARK INTER + INTRA:          -9.745
REMARK INTER:                 -10.017
REMARK INTRA:                   0.271
REMARK UNBOUND:                 0.972
REMARK  Name = ZINC000000338309
REMARK  9 active torsions:
REMARK  status: ('A' for Active; 'I' for Inactive)
REMARK    1  A    between atoms: C_1  and  O_2
REMARK    2  A    between atoms: O_2  and  C_3
REMARK    3  A    between atoms: C_13  and  C_14
REMARK    4  A    between atoms: C_14  and  C_15
REMARK    5  A    between atoms: C_15  and  O_16
REMARK    6  A    between atoms: C_15  and  C_17
REMARK    7  A    between atoms: C_17  and  C_18
REMARK    8  A    between atoms: C_17  and  C_19
REMARK    9  A    between atoms: C_17  and  O_20
REMARK                            x       y       z     vdW  Elec       q    Type
REMARK                         _______ _______ _______ _____ _____    ______ ____
ROOT
ATOM      1  C   UNL     1      -0.640   3.237 -24.606  0.00  0.00    +0.127 A 
ATOM      2  C   UNL     1      -1.641   3.453 -25.406  0.00  0.00    +0.047 A 
ATOM      3  C   UNL     1      -2.844   3.563 -24.925  0.00  0.00    +0.015 A 
ATOM      4  C   UNL     1      -3.046   3.458 -23.646  0.00  0.00    +0.018 A 
ATOM      5  C   UNL     1      -4.248   3.568 -23.164  0.00  0.00    +0.018 A 
ATOM      6  C   UNL     1      -4.449   3.463 -21.885  0.00  0.00    +0.092 A 
ATOM      7  C   UNL     1      -3.447   3.247 -21.085  0.00  0.00    +0.337 A 
ATOM      8  O   UNL     1      -2.243   3.136 -21.566  0.00  0.00    -0.422 OA
ATOM      9  O   UNL     1      -3.648   3.142 -19.805  0.00  0.00    -0.245 OA
ATOM     10  C   UNL     1      -2.043   3.242 -22.846  0.00  0.00    +0.146 A 
ATOM     11  C   UNL     1      -0.840   3.131 -23.326  0.00  0.00    +0.040 A 
ENDROOT
BRANCH   1  13
ATOM     12  C   UNL     1       1.169   4.171 -25.569  0.00  0.00    +0.277 C 
ATOM     13  O   UNL     1       0.564   3.126 -25.087  0.00  0.00    -0.495 OA
ENDBRANCH   1  13
BRANCH  11  14
ATOM     14  C   UNL     1       0.162   2.916 -22.526  0.00  0.00    +0.076 C 
BRANCH  14  15
ATOM     15  C   UNL     1       0.529   1.698 -22.258  0.00  0.00    +0.150 C 
BRANCH  15  16
ATOM     16  C   UNL     1       1.790   1.413 -22.124  0.00  0.00    +0.087 C 
ATOM     17  C   UNL     1       2.380   1.594 -20.980  0.00  0.00    +0.043 C 
ATOM     18  C   UNL     1       2.906   0.980 -22.631  0.00  0.00    +0.043 C 
BRANCH  16  19
ATOM     19  O   UNL     1       1.838   1.040 -23.369  0.00  0.00    -0.387 OA
ATOM     20  H   UNL     1       1.222   0.304 -23.509  0.00  0.00    +0.210 HD
ENDBRANCH  16  19
ENDBRANCH  15  16
BRANCH  15  21
ATOM     21  O   UNL     1      -0.367   0.764 -22.123  0.00  0.00    -0.389 OA
ATOM     22  H   UNL     1       0.031  -0.005 -21.687  0.00  0.00    +0.210 HD
ENDBRANCH  15  21
ENDBRANCH  14  15
ENDBRANCH  11  14
TORSDOF 6
ENDMDL
MODEL 4
REMARK VINA RESULT:    -8.475      1.659      4.639
REMARK INTER + INTRA:          -9.731
REMARK INTER:                 -10.082
REMARK INTRA:                   0.350
REMARK UNBOUND:                 0.972
REMARK  Name = ZINC000000338309
REMARK  9 active torsions:
REMARK  status: ('A' for Active; 'I' for Inactive)
REMARK    1  A    between atoms: C_1  and  O_2
REMARK    2  A    between atoms: O_2  and  C_3
REMARK    3  A    between atoms: C_13  and  C_14
REMARK    4  A    between atoms: C_14  and  C_15
REMARK    5  A    between atoms: C_15  and  O_16
REMARK    6  A    between atoms: C_15  and  C_17
REMARK    7  A    between atoms: C_17  and  C_18
REMARK    8  A    between atoms: C_17  and  C_19
REMARK    9  A    between atoms: C_17  and  O_20
REMARK                            x       y       z     vdW  Elec       q    Type
REMARK                         _______ _______ _______ _____ _____    ______ ____
ROOT
ATOM      1  C   UNL     1      -1.894   3.085 -22.032  0.00  0.00    +0.127 A 
ATOM      2  C   UNL     1      -1.631   2.228 -21.090  0.00  0.00    +0.047 A 
ATOM      3  C   UNL     1      -0.492   1.601 -21.082  0.00  0.00    +0.015 A 
ATOM      4  C   UNL     1       0.382   1.829 -22.016  0.00  0.00    +0.018 A 
ATOM      5  C   UNL     1       1.521   1.201 -22.009  0.00  0.00    +0.018 A 
ATOM      6  C   UNL     1       2.395   1.429 -22.943  0.00  0.00    +0.092 A 
ATOM      7  C   UNL     1       2.132   2.286 -23.885  0.00  0.00    +0.337 A 
ATOM      8  O   UNL     1       0.993   2.914 -23.893  0.00  0.00    -0.422 OA
ATOM      9  O   UNL     1       3.006   2.514 -24.819  0.00  0.00    -0.245 OA
ATOM     10  C   UNL     1       0.118   2.686 -22.959  0.00  0.00    +0.146 A 
ATOM     11  C   UNL     1      -1.020   3.313 -22.966  0.00  0.00    +0.040 A 
ENDROOT
BRANCH   1  13
ATOM     12  C   UNL     1      -4.139   3.055 -21.851  0.00  0.00    +0.277 C 
ATOM     13  O   UNL     1      -3.033   3.712 -22.040  0.00  0.00    -0.495 OA
ENDBRANCH   1  13
BRANCH  11  14
ATOM     14  C   UNL     1      -1.283   4.169 -23.908  0.00  0.00    +0.076 C 
BRANCH  14  15
ATOM     15  C   UNL     1      -1.696   3.753 -25.069  0.00  0.00    +0.150 C 
BRANCH  15  16
ATOM     16  C   UNL     1      -2.969   3.697 -25.324  0.00  0.00    +0.087 C 
ATOM     17  C   UNL     1      -3.696   4.771 -25.246  0.00  0.00    +0.043 C 
ATOM     18  C   UNL     1      -4.019   3.011 -25.665  0.00  0.00    +0.043 C 
BRANCH  16  19
ATOM     19  O   UNL     1      -2.865   2.423 -25.562  0.00  0.00    -0.387 OA
ATOM     20  H   UNL     1      -1.929   2.167 -25.550  0.00  0.00    +0.210 HD
ENDBRANCH  16  19
ENDBRANCH  15  16
BRANCH  15  21
ATOM     21  O   UNL     1      -0.834   3.393 -25.974  0.00  0.00    -0.389 OA
ATOM     22  H   UNL     1      -0.145   2.847 -25.565  0.00  0.00    +0.210 HD
ENDBRANCH  15  21
ENDBRANCH  14  15
ENDBRANCH  11  14
TORSDOF 6
ENDMDL
MODEL 5
REMARK VINA RESULT:    -8.435      1.611      2.030
REMARK INTER + INTRA:          -9.681
REMARK INTER:                 -10.229
REMARK INTRA:                   0.547
REMARK UNBOUND:                 0.972
REMARK  Name = ZINC000000338309
REMARK  9 active torsions:
REMARK  status: ('A' for Active; 'I' for Inactive)
REMARK    1  A    between atoms: C_1  and  O_2
REMARK    2  A    between atoms: O_2  and  C_3
REMARK    3  A    between atoms: C_13  and  C_14
REMARK    4  A    between atoms: C_14  and  C_15
REMARK    5  A    between atoms: C_15  and  O_16
REMARK    6  A    between atoms: C_15  and  C_17
REMARK    7  A    between atoms: C_17  and  C_18
REMARK    8  A    between atoms: C_17  and  C_19
REMARK    9  A    between atoms: C_17  and  O_20
REMARK                            x       y       z     vdW  Elec       q    Type
REMARK                         _______ _______ _______ _____ _____    ______ ____
ROOT
ATOM      1  C   UNL     1      -1.165   2.897 -22.317  0.00  0.00    +0.127 A 
ATOM      2  C   UNL     1      -2.266   3.137 -21.668  0.00  0.00    +0.047 A 
ATOM      3  C   UNL     1      -3.359   3.403 -22.320  0.00  0.00    +0.015 A 
ATOM      4  C   UNL     1      -3.352   3.430 -23.619  0.00  0.00    +0.018 A 
ATOM      5  C   UNL     1      -4.444   3.695 -24.272  0.00  0.00    +0.018 A 
ATOM      6  C   UNL     1      -4.437   3.722 -25.571  0.00  0.00    +0.092 A 
ATOM      7  C   UNL     1      -3.336   3.482 -26.219  0.00  0.00    +0.337 A 
ATOM      8  O   UNL     1      -2.242   3.216 -25.567  0.00  0.00    -0.422 OA
ATOM      9  O   UNL     1      -3.327   3.508 -27.518  0.00  0.00    -0.245 OA
ATOM     10  C   UNL     1      -2.250   3.189 -24.268  0.00  0.00    +0.146 A 
ATOM     11  C   UNL     1      -1.157   2.923 -23.616  0.00  0.00    +0.040 A 
ENDROOT
BRANCH   1  13
ATOM     12  C   UNL     1       0.042   1.509 -21.018  0.00  0.00    +0.277 C 
ATOM     13  O   UNL     1      -0.072   2.631 -21.664  0.00  0.00    -0.495 OA
ENDBRANCH   1  13
BRANCH  11  14
ATOM     14  C   UNL     1      -0.056   2.684 -24.264  0.00  0.00    +0.076 C 
BRANCH  14  15
ATOM     15  C   UNL     1       0.642   3.668 -24.746  0.00  0.00    +0.150 C 
BRANCH  15  16
ATOM     16  C   UNL     1       1.570   4.223 -24.024  0.00  0.00    +0.087 C 
ATOM     17  C   UNL     1       2.641   3.554 -23.716  0.00  0.00    +0.043 C 
ATOM     18  C   UNL     1       2.022   5.249 -23.366  0.00  0.00    +0.043 C 
BRANCH  16  19
ATOM     19  O   UNL     1       0.868   5.315 -23.961  0.00  0.00    -0.387 OA
ATOM     20  H   UNL     1       0.091   5.234 -24.537  0.00  0.00    +0.210 HD
ENDBRANCH  16  19
ENDBRANCH  15  16
BRANCH  15  21
ATOM     21  O   UNL     1       0.413   4.099 -25.952  0.00  0.00    -0.389 OA
ATOM     22  H   UNL     1      -0.007   3.396 -26.471  0.00  0.00    +0.210 HD
ENDBRANCH  15  21
ENDBRANCH  14  15
ENDBRANCH  11  14
TORSDOF 6
ENDMDL
MODEL 6
REMARK VINA RESULT:    -8.415      1.536      5.762
REMARK INTER + INTRA:          -9.657
REMARK INTER:                  -9.929
REMARK INTRA:                   0.273
REMARK UNBOUND:                 0.972
REMARK  Name = ZINC000000338309
REMARK  9 active torsions:
REMARK  status: ('A' for Active; 'I' for Inactive)
REMARK    1  A    between atoms: C_1  and  O_2
REMARK    2  A    between atoms: O_2  and  C_3
REMARK    3  A    between atoms: C_13  and  C_14
REMARK    4  A    between atoms: C_14  and  C_15
REMARK    5  A    between atoms: C_15  and  O_16
REMARK    6  A    between atoms: C_15  and  C_17
REMARK    7  A    between atoms: C_17  and  C_18
REMARK    8  A    between atoms: C_17  and  C_19
REMARK    9  A    between atoms: C_17  and  O_20
REMARK                            x       y       z     vdW  Elec       q    Type
REMARK                         _______ _______ _______ _____ _____    ______ ____
ROOT
ATOM      1  C   UNL     1      -1.456   3.359 -24.761  0.00  0.00    +0.127 A 
ATOM      2  C   UNL     1      -0.441   3.757 -25.470  0.00  0.00    +0.047 A 
ATOM      3  C   UNL     1       0.769   3.562 -25.036  0.00  0.00    +0.015 A 
ATOM      4  C   UNL     1       0.964   2.971 -23.895  0.00  0.00    +0.018 A 
ATOM      5  C   UNL     1       2.174   2.776 -23.460  0.00  0.00    +0.018 A 
ATOM      6  C   UNL     1       2.368   2.185 -22.320  0.00  0.00    +0.092 A 
ATOM      7  C   UNL     1       1.353   1.788 -21.612  0.00  0.00    +0.337 A 
ATOM      8  O   UNL     1       0.141   1.983 -22.046  0.00  0.00    -0.422 OA
ATOM      9  O   UNL     1       1.547   1.197 -20.471  0.00  0.00    -0.245 OA
ATOM     10  C   UNL     1      -0.053   2.574 -23.187  0.00  0.00    +0.146 A 
ATOM     11  C   UNL     1      -1.262   2.768 -23.620  0.00  0.00    +0.040 A 
ENDROOT
BRANCH   1  13
ATOM     12  C   UNL     1      -2.929   3.439 -26.463  0.00  0.00    +0.277 C 
ATOM     13  O   UNL     1      -2.667   3.554 -25.196  0.00  0.00    -0.495 OA
ENDBRANCH   1  13
BRANCH  11  14
ATOM     14  C   UNL     1      -2.278   2.371 -22.913  0.00  0.00    +0.076 C 
BRANCH  14  15
ATOM     15  C   UNL     1      -2.905   3.213 -22.146  0.00  0.00    +0.150 C 
BRANCH  15  16
ATOM     16  C   UNL     1      -4.169   3.048 -21.895  0.00  0.00    +0.087 C 
ATOM     17  C   UNL     1      -4.542   2.324 -20.882  0.00  0.00    +0.043 C 
ATOM     18  C   UNL     1      -5.415   3.274 -22.191  0.00  0.00    +0.043 C 
BRANCH  16  19
ATOM     19  O   UNL     1      -4.470   3.787 -22.921  0.00  0.00    -0.387 OA
ATOM     20  H   UNL     1      -4.390   3.262 -23.733  0.00  0.00    +0.210 HD
ENDBRANCH  16  19
ENDBRANCH  15  16
BRANCH  15  21
ATOM     21  O   UNL     1      -2.265   4.222 -21.629  0.00  0.00    -0.389 OA
ATOM     22  H   UNL     1      -1.311   4.090 -21.739  0.00  0.00    +0.210 HD
ENDBRANCH  15  21
ENDBRANCH  14  15
ENDBRANCH  11  14
TORSDOF 6
ENDMDL
MODEL 7
REMARK VINA RESULT:    -8.364      1.618      5.593
REMARK INTER + INTRA:          -9.592
REMARK INTER:                  -9.785
REMARK INTRA:                   0.193
REMARK UNBOUND:                 0.972
REMARK  Name = ZINC000000338309
REMARK  9 active torsions:
REMARK  status: ('A' for Active; 'I' for Inactive)
REMARK    1  A    between atoms: C_1  and  O_2
REMARK    2  A    between atoms: O_2  and  C_3
REMARK    3  A    between atoms: C_13  and  C_14
REMARK    4  A    between atoms: C_14  and  C_15
REMARK    5  A    between atoms: C_15  and  O_16
REMARK    6  A    between atoms: C_15  and  C_17
REMARK    7  A    between atoms: C_17  and  C_18
REMARK    8  A    between atoms: C_17  and  C_19
REMARK    9  A    between atoms: C_17  and  O_20
REMARK                            x       y       z     vdW  Elec       q    Type
REMARK                         _______ _______ _______ _____ _____    ______ ____
ROOT
ATOM      1  C   UNL     1      -2.492   3.898 -24.284  0.00  0.00    +0.127 A 
ATOM      2  C   UNL     1      -2.232   3.731 -25.546  0.00  0.00    +0.047 A 
ATOM      3  C   UNL     1      -1.000   3.616 -25.946  0.00  0.00    +0.015 A 
ATOM      4  C   UNL     1      -0.029   3.669 -25.085  0.00  0.00    +0.018 A 
ATOM      5  C   UNL     1       1.203   3.555 -25.484  0.00  0.00    +0.018 A 
ATOM      6  C   UNL     1       2.174   3.608 -24.622  0.00  0.00    +0.092 A 
ATOM      7  C   UNL     1       1.914   3.775 -23.359  0.00  0.00    +0.337 A 
ATOM      8  O   UNL     1       0.681   3.890 -22.958  0.00  0.00    -0.422 OA
ATOM      9  O   UNL     1       2.885   3.828 -22.497  0.00  0.00    -0.245 OA
ATOM     10  C   UNL     1      -0.289   3.837 -23.821  0.00  0.00    +0.146 A 
ATOM     11  C   UNL     1      -1.521   3.951 -23.421  0.00  0.00    +0.040 A 
ENDROOT
BRANCH   1  13
ATOM     12  C   UNL     1      -4.692   4.008 -24.751  0.00  0.00    +0.277 C 
ATOM     13  O   UNL     1      -3.724   4.012 -23.884  0.00  0.00    -0.495 OA
ENDBRANCH   1  13
BRANCH  11  14
ATOM     14  C   UNL     1      -1.781   4.118 -22.158  0.00  0.00    +0.076 C 
BRANCH  14  15
ATOM     15  C   UNL     1      -2.037   3.090 -21.405  0.00  0.00    +0.150 C 
BRANCH  15  16
ATOM     16  C   UNL     1      -3.156   3.029 -20.747  0.00  0.00    +0.087 C 
ATOM     17  C   UNL     1      -3.324   3.754 -19.681  0.00  0.00    +0.043 C 
ATOM     18  C   UNL     1      -4.352   2.539 -20.602  0.00  0.00    +0.043 C 
BRANCH  16  19
ATOM     19  O   UNL     1      -3.609   2.156 -21.598  0.00  0.00    -0.387 OA
ATOM     20  H   UNL     1      -2.916   1.506 -21.794  0.00  0.00    +0.210 HD
ENDBRANCH  16  19
ENDBRANCH  15  16
BRANCH  15  21
ATOM     21  O   UNL     1      -1.172   2.123 -21.311  0.00  0.00    -0.389 OA
ATOM     22  H   UNL     1      -1.593   1.354 -20.897  0.00  0.00    +0.210 HD
ENDBRANCH  15  21
ENDBRANCH  14  15
ENDBRANCH  11  14
TORSDOF 6
ENDMDL
MODEL 8
REMARK VINA RESULT:    -8.245      3.085      5.401
REMARK INTER + INTRA:          -9.442
REMARK INTER:                  -9.779
REMARK INTRA:                   0.337
REMARK UNBOUND:                 0.972
REMARK  Name = ZINC000000338309
REMARK  9 active torsions:
REMARK  status: ('A' for Active; 'I' for Inactive)
REMARK    1  A    between atoms: C_1  and  O_2
REMARK    2  A    between atoms: O_2  and  C_3
REMARK    3  A    between atoms: C_13  and  C_14
REMARK    4  A    between atoms: C_14  and  C_15
REMARK    5  A    between atoms: C_15  and  O_16
REMARK    6  A    between atoms: C_15  and  C_17
REMARK    7  A    between atoms: C_17  and  C_18
REMARK    8  A    between atoms: C_17  and  C_19
REMARK    9  A    between atoms: C_17  and  O_20
REMARK                            x       y       z     vdW  Elec       q    Type
REMARK                         _______ _______ _______ _____ _____    ______ ____
ROOT
ATOM      1  C   UNL     1       3.993   3.686 -23.501  0.00  0.00    +0.127 A 
ATOM      2  C   UNL     1       3.696   4.926 -23.248  0.00  0.00    +0.047 A 
ATOM      3  C   UNL     1       2.451   5.287 -23.148  0.00  0.00    +0.015 A 
ATOM      4  C   UNL     1       1.504   4.410 -23.301  0.00  0.00    +0.018 A 
ATOM      5  C   UNL     1       0.259   4.771 -23.201  0.00  0.00    +0.018 A 
ATOM      6  C   UNL     1      -0.687   3.893 -23.354  0.00  0.00    +0.092 A 
ATOM      7  C   UNL     1      -0.388   2.654 -23.607  0.00  0.00    +0.337 A 
ATOM      8  O   UNL     1       0.857   2.291 -23.707  0.00  0.00    -0.422 OA
ATOM      9  O   UNL     1      -1.334   1.775 -23.760  0.00  0.00    -0.245 OA
ATOM     10  C   UNL     1       1.803   3.169 -23.554  0.00  0.00    +0.146 A 
ATOM     11  C   UNL     1       3.047   2.808 -23.654  0.00  0.00    +0.040 A 
ENDROOT
BRANCH   1  13
ATOM     12  C   UNL     1       6.142   3.894 -22.860  0.00  0.00    +0.277 C 
ATOM     13  O   UNL     1       5.239   3.324 -23.601  0.00  0.00    -0.495 OA
ENDBRANCH   1  13
BRANCH  11  14
ATOM     14  C   UNL     1       3.346   1.568 -23.907  0.00  0.00    +0.076 C 
BRANCH  14  15
ATOM     15  C   UNL     1       3.217   0.666 -22.980  0.00  0.00    +0.150 C 
BRANCH  15  16
ATOM     16  C   UNL     1       3.900   0.764 -21.878  0.00  0.00    +0.087 C 
ATOM     17  C   UNL     1       3.309   1.118 -20.776  0.00  0.00    +0.043 C 
ATOM     18  C   UNL     1       5.030   0.673 -21.243  0.00  0.00    +0.043 C 
BRANCH  16  19
ATOM     19  O   UNL     1       4.977   0.412 -22.515  0.00  0.00    -0.387 OA
ATOM     20  H   UNL     1       5.237   1.119 -23.127  0.00  0.00    +0.210 HD
ENDBRANCH  16  19
ENDBRANCH  15  16
BRANCH  15  21
ATOM     21  O   UNL     1       2.404  -0.335 -23.155  0.00  0.00    -0.389 OA
ATOM     22  H   UNL     1       1.556  -0.141 -22.727  0.00  0.00    +0.210 HD
ENDBRANCH  15  21
ENDBRANCH  14  15
ENDBRANCH  11  14
TORSDOF 6
ENDMDL
MODEL 9
REMARK VINA RESULT:    -7.817      1.486      3.100
REMARK INTER + INTRA:          -8.901
REMARK INTER:                  -9.873
REMARK INTRA:                   0.972
REMARK UNBOUND:                 0.972
REMARK  Name = ZINC000000338309
REMARK  9 active torsions:
REMARK  status: ('A' for Active; 'I' for Inactive)
REMARK    1  A    between atoms: C_1  and  O_2
REMARK    2  A    between atoms: O_2  and  C_3
REMARK    3  A    between atoms: C_13  and  C_14
REMARK    4  A    between atoms: C_14  and  C_15
REMARK    5  A    between atoms: C_15  and  O_16
REMARK    6  A    between atoms: C_15  and  C_17
REMARK    7  A    between atoms: C_17  and  C_18
REMARK    8  A    between atoms: C_17  and  C_19
REMARK    9  A    between atoms: C_17  and  O_20
REMARK                            x       y       z     vdW  Elec       q    Type
REMARK                         _______ _______ _______ _____ _____    ______ ____
ROOT
ATOM      1  C   UNL     1      -0.234   2.764 -23.130  0.00  0.00    +0.127 A 
ATOM      2  C   UNL     1      -0.014   1.877 -22.205  0.00  0.00    +0.047 A 
ATOM      3  C   UNL     1      -0.975   1.523 -21.404  0.00  0.00    +0.015 A 
ATOM      4  C   UNL     1      -2.154   2.054 -21.527  0.00  0.00    +0.018 A 
ATOM      5  C   UNL     1      -3.115   1.700 -20.727  0.00  0.00    +0.018 A 
ATOM      6  C   UNL     1      -4.294   2.231 -20.850  0.00  0.00    +0.092 A 
ATOM      7  C   UNL     1      -4.514   3.118 -21.775  0.00  0.00    +0.337 A 
ATOM      8  O   UNL     1      -3.553   3.473 -22.577  0.00  0.00    -0.422 OA
ATOM      9  O   UNL     1      -5.693   3.650 -21.899  0.00  0.00    -0.245 OA
ATOM     10  C   UNL     1      -2.373   2.941 -22.453  0.00  0.00    +0.146 A 
ATOM     11  C   UNL     1      -1.413   3.296 -23.254  0.00  0.00    +0.040 A 
ENDROOT
BRANCH   1  13
ATOM     12  C   UNL     1       1.792   2.380 -24.036  0.00  0.00    +0.277 C 
ATOM     13  O   UNL     1       0.727   3.118 -23.932  0.00  0.00    -0.495 OA
ENDBRANCH   1  13
BRANCH  11  14
ATOM     14  C   UNL     1      -1.633   4.182 -24.180  0.00  0.00    +0.076 C 
BRANCH  14  15
ATOM     15  C   UNL     1      -2.081   3.812 -25.342  0.00  0.00    +0.150 C 
BRANCH  15  16
ATOM     16  C   UNL     1      -3.358   3.842 -25.586  0.00  0.00    +0.087 C 
ATOM     17  C   UNL     1      -3.945   2.806 -26.106  0.00  0.00    +0.043 C 
ATOM     18  C   UNL     1      -4.493   4.475 -25.567  0.00  0.00    +0.043 C 
BRANCH  16  19
ATOM     19  O   UNL     1      -3.417   5.056 -25.126  0.00  0.00    -0.387 OA
ATOM     20  H   UNL     1      -3.262   5.684 -25.849  0.00  0.00    +0.210 HD
ENDBRANCH  16  19
ENDBRANCH  15  16
BRANCH  15  21
ATOM     21  O   UNL     1      -1.252   3.411 -26.261  0.00  0.00    -0.389 OA
ATOM     22  H   UNL     1      -0.901   2.540 -26.021  0.00  0.00    +0.210 HD
ENDBRANCH  15  21
ENDBRANCH  14  15
ENDBRANCH  11  14
TORSDOF 6
ENDMDL
