MODEL 1
REMARK VINA RESULT:    -8.920      0.000      0.000
REMARK INTER + INTRA:         -11.266
REMARK INTER:                 -11.152
REMARK INTRA:                  -0.114
REMARK UNBOUND:                 0.001
REMARK  Name = ZINC000003871710
REMARK  8 active torsions:
REMARK  status: ('A' for Active; 'I' for Inactive)
REMARK    1  A    between atoms: C_1  and  O_2
REMARK    2  A    between atoms: O_2  and  C_3
REMARK    3  A    between atoms: C_4  and  O_5
REMARK    4  A    between atoms: C_9  and  O_10
REMARK    5  A    between atoms: C_13  and  C_14
REMARK    6  A    between atoms: C_14  and  O_15
REMARK    7  A    between atoms: C_16  and  O_17
REMARK    8  A    between atoms: C_18  and  O_19
REMARK                            x       y       z     vdW  Elec       q    Type
REMARK                         _______ _______ _______ _____ _____    ______ ____
ROOT
ATOM      1  C   UNL     1      -2.727   3.758 -25.190  0.00  0.00    +0.203 A 
ATOM      2  C   UNL     1      -3.669   3.915 -24.308  0.00  0.00    +0.163 A 
ATOM      3  C   UNL     1      -3.466   3.567 -23.072  0.00  0.00    +0.064 A 
ATOM      4  C   UNL     1      -2.322   3.062 -22.719  0.00  0.00    +0.072 A 
ATOM      5  C   UNL     1      -1.380   2.905 -23.600  0.00  0.00    +0.044 A 
ATOM      6  C   UNL     1      -0.235   2.400 -23.247  0.00  0.00    +0.196 C 
ATOM      7  O   UNL     1       0.706   2.243 -24.129  0.00  0.00    -0.360 OA
ATOM      8  C   UNL     1       1.851   1.738 -23.775  0.00  0.00    +0.175 C 
ATOM      9  C   UNL     1       2.054   1.390 -22.539  0.00  0.00    +0.178 C 
ATOM     10  C   UNL     1       1.112   1.547 -21.657  0.00  0.00    +0.189 C 
ATOM     11  C   UNL     1      -0.033   2.052 -22.011  0.00  0.00    +0.241 C 
ATOM     12  O   UNL     1      -0.975   2.209 -21.128  0.00  0.00    -0.452 OA
ATOM     13  C   UNL     1      -2.119   2.714 -21.482  0.00  0.00    +0.340 C 
ATOM     14  O   UNL     1      -3.061   2.871 -20.600  0.00  0.00    -0.245 OA
ATOM     15  C   UNL     1      -1.582   3.253 -24.836  0.00  0.00    +0.169 A 
ENDROOT
BRANCH   1  17
ATOM     16  C   UNL     1      -3.526   3.289 -27.242  0.00  0.00    +0.277 C 
ATOM     17  O   UNL     1      -2.929   4.107 -26.426  0.00  0.00    -0.489 OA
ENDBRANCH   1  17
BRANCH  10  18
ATOM     18  O   UNL     1       1.314   1.198 -20.421  0.00  0.00    -0.385 OA
ATOM     19  H   UNL     1       1.470   0.242 -20.376  0.00  0.00    +0.210 HD
ENDBRANCH  10  18
BRANCH   9  20
ATOM     20  O   UNL     1       3.198   0.885 -22.186  0.00  0.00    -0.386 OA
ATOM     21  H   UNL     1       3.916   1.429 -22.544  0.00  0.00    +0.210 HD
ENDBRANCH   9  20
BRANCH  15  22
ATOM     22  O   UNL     1      -0.640   3.097 -25.719  0.00  0.00    -0.503 OA
ATOM     23  H   UNL     1       0.247   2.978 -25.441  0.00  0.00    +0.292 HD
ENDBRANCH  15  22
BRANCH   2  24
ATOM     24  O   UNL     1      -4.813   4.420 -24.662  0.00  0.00    -0.503 OA
ATOM     25  H   UNL     1      -4.900   4.849 -25.491  0.00  0.00    +0.292 HD
ENDBRANCH   2  24
BRANCH   8  26
ATOM     26  C   UNL     1       2.793   1.581 -24.657  0.00  0.00    +0.190 C 
BRANCH  26  27
ATOM     27  O   UNL     1       3.071   0.393 -25.107  0.00  0.00    -0.392 OA
ATOM     28  H   UNL     1       2.492  -0.258 -24.680  0.00  0.00    +0.210 HD
ENDBRANCH  26  27
ENDBRANCH   8  26
TORSDOF 7
ENDMDL
MODEL 2
REMARK VINA RESULT:    -8.692      1.281      5.430
REMARK INTER + INTRA:         -10.977
REMARK INTER:                 -10.911
REMARK INTRA:                  -0.067
REMARK UNBOUND:                 0.001
REMARK  Name = ZINC000003871710
REMARK  8 active torsions:
REMARK  status: ('A' for Active; 'I' for Inactive)
REMARK    1  A    between atoms: C_1  and  O_2
REMARK    2  A    between atoms: O_2  and  C_3
REMARK    3  A    between atoms: C_4  and  O_5
REMARK    4  A    between atoms: C_9  and  O_10
REMARK    5  A    between atoms: C_13  and  C_14
REMARK    6  A    between atoms: C_14  and  O_15
REMARK    7  A    between atoms: C_16  and  O_17
REMARK    8  A    between atoms: C_18  and  O_19
REMARK                            x       y       z     vdW  Elec       q    Type
REMARK                         _______ _______ _______ _____ _____    ______ ____
ROOT
ATOM      1  C   UNL     1       0.572   1.827 -22.708  0.00  0.00    +0.203 A 
ATOM      2  C   UNL     1       0.366   1.725 -21.429  0.00  0.00    +0.163 A 
ATOM      3  C   UNL     1      -0.783   2.069 -20.927  0.00  0.00    +0.064 A 
ATOM      4  C   UNL     1      -1.725   2.515 -21.704  0.00  0.00    +0.072 A 
ATOM      5  C   UNL     1      -1.518   2.616 -22.984  0.00  0.00    +0.044 A 
ATOM      6  C   UNL     1      -2.461   3.062 -23.761  0.00  0.00    +0.196 C 
ATOM      7  O   UNL     1      -2.254   3.163 -25.040  0.00  0.00    -0.360 OA
ATOM      8  C   UNL     1      -3.196   3.608 -25.817  0.00  0.00    +0.175 C 
ATOM      9  C   UNL     1      -4.345   3.952 -25.315  0.00  0.00    +0.178 C 
ATOM     10  C   UNL     1      -4.551   3.851 -24.036  0.00  0.00    +0.189 C 
ATOM     11  C   UNL     1      -3.609   3.406 -23.259  0.00  0.00    +0.241 C 
ATOM     12  O   UNL     1      -3.816   3.304 -21.979  0.00  0.00    -0.452 OA
ATOM     13  C   UNL     1      -2.874   2.859 -21.201  0.00  0.00    +0.340 C 
ATOM     14  O   UNL     1      -3.080   2.758 -19.922  0.00  0.00    -0.245 OA
ATOM     15  C   UNL     1      -0.370   2.272 -23.486  0.00  0.00    +0.169 A 
ENDROOT
BRANCH   1  17
ATOM     16  C   UNL     1       2.675   2.360 -23.311  0.00  0.00    +0.277 C 
ATOM     17  O   UNL     1       1.721   1.483 -23.211  0.00  0.00    -0.489 OA
ENDBRANCH   1  17
BRANCH  10  18
ATOM     18  O   UNL     1      -5.700   4.195 -23.533  0.00  0.00    -0.385 OA
ATOM     19  H   UNL     1      -5.629   5.081 -23.144  0.00  0.00    +0.210 HD
ENDBRANCH  10  18
BRANCH   9  20
ATOM     20  O   UNL     1      -5.287   4.398 -26.093  0.00  0.00    -0.386 OA
ATOM     21  H   UNL     1      -5.007   5.235 -26.493  0.00  0.00    +0.210 HD
ENDBRANCH   9  20
BRANCH  15  22
ATOM     22  O   UNL     1      -0.163   2.373 -24.766  0.00  0.00    -0.503 OA
ATOM     23  H   UNL     1       0.433   1.789 -25.192  0.00  0.00    +0.292 HD
ENDBRANCH  15  22
BRANCH   2  24
ATOM     24  O   UNL     1       1.308   1.280 -20.652  0.00  0.00    -0.503 OA
ATOM     25  H   UNL     1       2.085   1.786 -20.520  0.00  0.00    +0.292 HD
ENDBRANCH   2  24
BRANCH   8  26
ATOM     26  C   UNL     1      -2.990   3.710 -27.097  0.00  0.00    +0.190 C 
BRANCH  26  27
ATOM     27  O   UNL     1      -3.802   3.133 -27.934  0.00  0.00    -0.392 OA
ATOM     28  H   UNL     1      -3.314   2.878 -28.732  0.00  0.00    +0.210 HD
ENDBRANCH  26  27
ENDBRANCH   8  26
TORSDOF 7
ENDMDL
MODEL 3
REMARK VINA RESULT:    -8.395      1.917      4.237
REMARK INTER + INTRA:         -10.602
REMARK INTER:                 -10.758
REMARK INTRA:                   0.156
REMARK UNBOUND:                 0.001
REMARK  Name = ZINC000003871710
REMARK  8 active torsions:
REMARK  status: ('A' for Active; 'I' for Inactive)
REMARK    1  A    between atoms: C_1  and  O_2
REMARK    2  A    between atoms: O_2  and  C_3
REMARK    3  A    between atoms: C_4  and  O_5
REMARK    4  A    between atoms: C_9  and  O_10
REMARK    5  A    between atoms: C_13  and  C_14
REMARK    6  A    between atoms: C_14  and  O_15
REMARK    7  A    between atoms: C_16  and  O_17
REMARK    8  A    between atoms: C_18  and  O_19
REMARK                            x       y       z     vdW  Elec       q    Type
REMARK                         _______ _______ _______ _____ _____    ______ ____
ROOT
ATOM      1  C   UNL     1      -1.191   2.461 -22.270  0.00  0.00    +0.203 A 
ATOM      2  C   UNL     1      -1.538   3.172 -23.302  0.00  0.00    +0.163 A 
ATOM      3  C   UNL     1      -0.643   3.534 -24.171  0.00  0.00    +0.064 A 
ATOM      4  C   UNL     1       0.599   3.186 -24.010  0.00  0.00    +0.072 A 
ATOM      5  C   UNL     1       0.946   2.476 -22.978  0.00  0.00    +0.044 A 
ATOM      6  C   UNL     1       2.188   2.128 -22.816  0.00  0.00    +0.196 C 
ATOM      7  O   UNL     1       2.535   1.417 -21.785  0.00  0.00    -0.360 OA
ATOM      8  C   UNL     1       3.777   1.069 -21.623  0.00  0.00    +0.175 C 
ATOM      9  C   UNL     1       4.672   1.432 -22.492  0.00  0.00    +0.178 C 
ATOM     10  C   UNL     1       4.325   2.142 -23.524  0.00  0.00    +0.189 C 
ATOM     11  C   UNL     1       3.083   2.490 -23.686  0.00  0.00    +0.241 C 
ATOM     12  O   UNL     1       2.737   3.201 -24.718  0.00  0.00    -0.452 OA
ATOM     13  C   UNL     1       1.495   3.549 -24.880  0.00  0.00    +0.340 C 
ATOM     14  O   UNL     1       1.148   4.260 -25.912  0.00  0.00    -0.245 OA
ATOM     15  C   UNL     1       0.051   2.113 -22.108  0.00  0.00    +0.169 A 
ENDROOT
BRANCH   1  17
ATOM     16  C   UNL     1      -2.641   2.986 -20.629  0.00  0.00    +0.277 C 
ATOM     17  O   UNL     1      -2.086   2.098 -21.400  0.00  0.00    -0.489 OA
ENDBRANCH   1  17
BRANCH  10  18
ATOM     18  O   UNL     1       5.221   2.505 -24.395  0.00  0.00    -0.385 OA
ATOM     19  H   UNL     1       6.057   2.691 -23.939  0.00  0.00    +0.210 HD
ENDBRANCH  10  18
BRANCH   9  20
ATOM     20  O   UNL     1       5.914   1.084 -22.331  0.00  0.00    -0.386 OA
ATOM     21  H   UNL     1       6.239   1.428 -21.484  0.00  0.00    +0.210 HD
ENDBRANCH   9  20
BRANCH  15  22
ATOM     22  O   UNL     1       0.398   1.402 -21.076  0.00  0.00    -0.503 OA
ATOM     23  H   UNL     1       0.922   0.634 -21.190  0.00  0.00    +0.292 HD
ENDBRANCH  15  22
BRANCH   2  24
ATOM     24  O   UNL     1      -2.780   3.520 -23.464  0.00  0.00    -0.503 OA
ATOM     25  H   UNL     1      -3.458   2.875 -23.411  0.00  0.00    +0.292 HD
ENDBRANCH   2  24
BRANCH   8  26
ATOM     26  C   UNL     1       4.124   0.359 -20.591  0.00  0.00    +0.190 C 
BRANCH  26  27
ATOM     27  O   UNL     1       5.121   0.737 -19.846  0.00  0.00    -0.392 OA
ATOM     28  H   UNL     1       5.813   0.058 -19.864  0.00  0.00    +0.210 HD
ENDBRANCH  26  27
ENDBRANCH   8  26
TORSDOF 7
ENDMDL
MODEL 4
REMARK VINA RESULT:    -8.359      1.340      3.736
REMARK INTER + INTRA:         -10.556
REMARK INTER:                 -10.563
REMARK INTRA:                   0.006
REMARK UNBOUND:                 0.001
REMARK  Name = ZINC000003871710
REMARK  8 active torsions:
REMARK  status: ('A' for Active; 'I' for Inactive)
REMARK    1  A    between atoms: C_1  and  O_2
REMARK    2  A    between atoms: O_2  and  C_3
REMARK    3  A    between atoms: C_4  and  O_5
REMARK    4  A    between atoms: C_9  and  O_10
REMARK    5  A    between atoms: C_13  and  C_14
REMARK    6  A    between atoms: C_14  and  O_15
REMARK    7  A    between atoms: C_16  and  O_17
REMARK    8  A    between atoms: C_18  and  O_19
REMARK                            x       y       z     vdW  Elec       q    Type
REMARK                         _______ _______ _______ _____ _____    ______ ____
ROOT
ATOM      1  C   UNL     1      -3.302   2.995 -21.652  0.00  0.00    +0.203 A 
ATOM      2  C   UNL     1      -4.148   3.336 -22.578  0.00  0.00    +0.163 A 
ATOM      3  C   UNL     1      -3.748   3.464 -23.808  0.00  0.00    +0.064 A 
ATOM      4  C   UNL     1      -2.502   3.251 -24.111  0.00  0.00    +0.072 A 
ATOM      5  C   UNL     1      -1.656   2.910 -23.185  0.00  0.00    +0.044 A 
ATOM      6  C   UNL     1      -0.410   2.697 -23.489  0.00  0.00    +0.196 C 
ATOM      7  O   UNL     1       0.436   2.357 -22.563  0.00  0.00    -0.360 OA
ATOM      8  C   UNL     1       1.682   2.144 -22.867  0.00  0.00    +0.175 C 
ATOM      9  C   UNL     1       2.082   2.271 -24.096  0.00  0.00    +0.178 C 
ATOM     10  C   UNL     1       1.236   2.612 -25.023  0.00  0.00    +0.189 C 
ATOM     11  C   UNL     1      -0.010   2.825 -24.719  0.00  0.00    +0.241 C 
ATOM     12  O   UNL     1      -0.856   3.166 -25.646  0.00  0.00    -0.452 OA
ATOM     13  C   UNL     1      -2.102   3.379 -25.342  0.00  0.00    +0.340 C 
ATOM     14  O   UNL     1      -2.948   3.720 -26.269  0.00  0.00    -0.245 OA
ATOM     15  C   UNL     1      -2.056   2.782 -21.955  0.00  0.00    +0.169 A 
ENDROOT
BRANCH   1  17
ATOM     16  C   UNL     1      -3.337   3.736 -19.525  0.00  0.00    +0.277 C 
ATOM     17  O   UNL     1      -3.702   2.867 -20.421  0.00  0.00    -0.489 OA
ENDBRANCH   1  17
BRANCH  10  18
ATOM     18  O   UNL     1       1.636   2.740 -26.253  0.00  0.00    -0.385 OA
ATOM     19  H   UNL     1       0.869   2.709 -26.847  0.00  0.00    +0.210 HD
ENDBRANCH  10  18
BRANCH   9  20
ATOM     20  O   UNL     1       3.328   2.059 -24.400  0.00  0.00    -0.386 OA
ATOM     21  H   UNL     1       3.508   2.405 -25.288  0.00  0.00    +0.210 HD
ENDBRANCH   9  20
BRANCH  15  22
ATOM     22  O   UNL     1      -1.210   2.441 -21.028  0.00  0.00    -0.503 OA
ATOM     23  H   UNL     1      -0.722   1.645 -21.109  0.00  0.00    +0.292 HD
ENDBRANCH  15  22
BRANCH   2  24
ATOM     24  O   UNL     1      -5.394   3.549 -22.274  0.00  0.00    -0.503 OA
ATOM     25  H   UNL     1      -5.741   4.419 -22.300  0.00  0.00    +0.292 HD
ENDBRANCH   2  24
BRANCH   8  26
ATOM     26  C   UNL     1       2.527   1.803 -21.940  0.00  0.00    +0.190 C 
BRANCH  26  27
ATOM     27  O   UNL     1       3.466   2.628 -21.581  0.00  0.00    -0.392 OA
ATOM     28  H   UNL     1       4.316   2.162 -21.559  0.00  0.00    +0.210 HD
ENDBRANCH  26  27
ENDBRANCH   8  26
TORSDOF 7
ENDMDL
MODEL 5
REMARK VINA RESULT:    -8.199      1.360      6.225
REMARK INTER + INTRA:         -10.354
REMARK INTER:                 -10.384
REMARK INTRA:                   0.030
REMARK UNBOUND:                 0.001
REMARK  Name = ZINC000003871710
REMARK  8 active torsions:
REMARK  status: ('A' for Active; 'I' for Inactive)
REMARK    1  A    between atoms: C_1  and  O_2
REMARK    2  A    between atoms: O_2  and  C_3
REMARK    3  A    between atoms: C_4  and  O_5
REMARK    4  A    between atoms: C_9  and  O_10
REMARK    5  A    between atoms: C_13  and  C_14
REMARK    6  A    between atoms: C_14  and  O_15
REMARK    7  A    between atoms: C_16  and  O_17
REMARK    8  A    between atoms: C_18  and  O_19
REMARK                            x       y       z     vdW  Elec       q    Type
REMARK                         _______ _______ _______ _____ _____    ______ ____
ROOT
ATOM      1  C   UNL     1       2.220   1.125 -22.347  0.00  0.00    +0.203 A 
ATOM      2  C   UNL     1       2.944   1.500 -23.360  0.00  0.00    +0.163 A 
ATOM      3  C   UNL     1       2.425   2.250 -24.286  0.00  0.00    +0.064 A 
ATOM      4  C   UNL     1       1.184   2.625 -24.200  0.00  0.00    +0.072 A 
ATOM      5  C   UNL     1       0.460   2.250 -23.187  0.00  0.00    +0.044 A 
ATOM      6  C   UNL     1      -0.782   2.625 -23.101  0.00  0.00    +0.196 C 
ATOM      7  O   UNL     1      -1.505   2.250 -22.088  0.00  0.00    -0.360 OA
ATOM      8  C   UNL     1      -2.747   2.625 -22.002  0.00  0.00    +0.175 C 
ATOM      9  C   UNL     1      -3.265   3.375 -22.928  0.00  0.00    +0.178 C 
ATOM     10  C   UNL     1      -2.542   3.750 -23.941  0.00  0.00    +0.189 C 
ATOM     11  C   UNL     1      -1.300   3.375 -24.027  0.00  0.00    +0.241 C 
ATOM     12  O   UNL     1      -0.577   3.750 -25.040  0.00  0.00    -0.452 OA
ATOM     13  C   UNL     1       0.665   3.375 -25.127  0.00  0.00    +0.340 C 
ATOM     14  O   UNL     1       1.389   3.750 -26.140  0.00  0.00    -0.245 OA
ATOM     15  C   UNL     1       0.978   1.500 -22.261  0.00  0.00    +0.169 A 
ENDROOT
BRANCH   1  17
ATOM     16  C   UNL     1       3.647   0.858 -20.625  0.00  0.00    +0.277 C 
ATOM     17  O   UNL     1       2.739   0.375 -21.420  0.00  0.00    -0.489 OA
ENDBRANCH   1  17
BRANCH  10  18
ATOM     18  O   UNL     1      -3.060   4.500 -24.868  0.00  0.00    -0.385 OA
ATOM     19  H   UNL     1      -3.009   4.041 -25.721  0.00  0.00    +0.210 HD
ENDBRANCH  10  18
BRANCH   9  20
ATOM     20  O   UNL     1      -4.507   3.750 -22.842  0.00  0.00    -0.386 OA
ATOM     21  H   UNL     1      -5.036   3.031 -22.463  0.00  0.00    +0.210 HD
ENDBRANCH   9  20
BRANCH  15  22
ATOM     22  O   UNL     1       0.255   1.125 -21.247  0.00  0.00    -0.503 OA
ATOM     23  H   UNL     1      -0.658   1.334 -21.220  0.00  0.00    +0.292 HD
ENDBRANCH  15  22
BRANCH   2  24
ATOM     24  O   UNL     1       4.185   1.125 -23.446  0.00  0.00    -0.503 OA
ATOM     25  H   UNL     1       4.401   0.307 -23.849  0.00  0.00    +0.292 HD
ENDBRANCH   2  24
BRANCH   8  26
ATOM     26  C   UNL     1      -3.470   2.250 -20.989  0.00  0.00    +0.190 C 
BRANCH  26  27
ATOM     27  O   UNL     1      -3.688   3.072 -20.005  0.00  0.00    -0.392 OA
ATOM     28  H   UNL     1      -3.576   3.984 -20.315  0.00  0.00    +0.210 HD
ENDBRANCH  26  27
ENDBRANCH   8  26
TORSDOF 7
ENDMDL
MODEL 6
REMARK VINA RESULT:    -7.894      1.242      5.205
REMARK INTER + INTRA:          -9.970
REMARK INTER:                  -9.850
REMARK INTRA:                  -0.119
REMARK UNBOUND:                 0.001
REMARK  Name = ZINC000003871710
REMARK  8 active torsions:
REMARK  status: ('A' for Active; 'I' for Inactive)
REMARK    1  A    between atoms: C_1  and  O_2
REMARK    2  A    between atoms: O_2  and  C_3
REMARK    3  A    between atoms: C_4  and  O_5
REMARK    4  A    between atoms: C_9  and  O_10
REMARK    5  A    between atoms: C_13  and  C_14
REMARK    6  A    between atoms: C_14  and  O_15
REMARK    7  A    between atoms: C_16  and  O_17
REMARK    8  A    between atoms: C_18  and  O_19
REMARK                            x       y       z     vdW  Elec       q    Type
REMARK                         _______ _______ _______ _____ _____    ______ ____
ROOT
ATOM      1  C   UNL     1       1.425   2.362 -24.695  0.00  0.00    +0.203 A 
ATOM      2  C   UNL     1       2.102   1.884 -23.694  0.00  0.00    +0.163 A 
ATOM      3  C   UNL     1       1.526   1.713 -22.542  0.00  0.00    +0.064 A 
ATOM      4  C   UNL     1       0.272   2.020 -22.390  0.00  0.00    +0.072 A 
ATOM      5  C   UNL     1      -0.406   2.498 -23.391  0.00  0.00    +0.044 A 
ATOM      6  C   UNL     1      -1.660   2.805 -23.240  0.00  0.00    +0.196 C 
ATOM      7  O   UNL     1      -2.338   3.283 -24.240  0.00  0.00    -0.360 OA
ATOM      8  C   UNL     1      -3.592   3.590 -24.089  0.00  0.00    +0.175 C 
ATOM      9  C   UNL     1      -4.168   3.419 -22.936  0.00  0.00    +0.178 C 
ATOM     10  C   UNL     1      -3.490   2.941 -21.936  0.00  0.00    +0.189 C 
ATOM     11  C   UNL     1      -2.236   2.634 -22.087  0.00  0.00    +0.241 C 
ATOM     12  O   UNL     1      -1.558   2.156 -21.086  0.00  0.00    -0.452 OA
ATOM     13  C   UNL     1      -0.304   1.849 -21.237  0.00  0.00    +0.340 C 
ATOM     14  O   UNL     1       0.374   1.371 -20.236  0.00  0.00    -0.245 OA
ATOM     15  C   UNL     1       0.170   2.669 -24.544  0.00  0.00    +0.169 A 
ENDROOT
BRANCH   1  17
ATOM     16  C   UNL     1       2.034   1.560 -26.709  0.00  0.00    +0.277 C 
ATOM     17  O   UNL     1       2.001   2.533 -25.848  0.00  0.00    -0.489 OA
ENDBRANCH   1  17
BRANCH  10  18
ATOM     18  O   UNL     1      -4.066   2.770 -20.782  0.00  0.00    -0.385 OA
ATOM     19  H   UNL     1      -4.393   3.623 -20.455  0.00  0.00    +0.210 HD
ENDBRANCH  10  18
BRANCH   9  20
ATOM     20  O   UNL     1      -5.422   3.726 -22.785  0.00  0.00    -0.386 OA
ATOM     21  H   UNL     1      -5.917   3.466 -23.577  0.00  0.00    +0.210 HD
ENDBRANCH   9  20
BRANCH  15  22
ATOM     22  O   UNL     1      -0.508   3.147 -25.545  0.00  0.00    -0.503 OA
ATOM     23  H   UNL     1      -0.596   4.074 -25.651  0.00  0.00    +0.292 HD
ENDBRANCH  15  22
BRANCH   2  24
ATOM     24  O   UNL     1       3.357   1.577 -23.846  0.00  0.00    -0.503 OA
ATOM     25  H   UNL     1       3.837   1.203 -23.133  0.00  0.00    +0.292 HD
ENDBRANCH   2  24
BRANCH   8  26
ATOM     26  C   UNL     1      -4.270   4.068 -25.089  0.00  0.00    +0.190 C 
BRANCH  26  27
ATOM     27  O   UNL     1      -4.486   5.348 -25.177  0.00  0.00    -0.392 OA
ATOM     28  H   UNL     1      -5.174   5.515 -25.840  0.00  0.00    +0.210 HD
ENDBRANCH  26  27
ENDBRANCH   8  26
TORSDOF 7
ENDMDL
MODEL 7
REMARK VINA RESULT:    -7.734      2.912      6.485
REMARK INTER + INTRA:          -9.767
REMARK INTER:                  -9.822
REMARK INTRA:                   0.055
REMARK UNBOUND:                 0.001
REMARK  Name = ZINC000003871710
REMARK  8 active torsions:
REMARK  status: ('A' for Active; 'I' for Inactive)
REMARK    1  A    between atoms: C_1  and  O_2
REMARK    2  A    between atoms: O_2  and  C_3
REMARK    3  A    between atoms: C_4  and  O_5
REMARK    4  A    between atoms: C_9  and  O_10
REMARK    5  A    between atoms: C_13  and  C_14
REMARK    6  A    between atoms: C_14  and  O_15
REMARK    7  A    between atoms: C_16  and  O_17
REMARK    8  A    between atoms: C_18  and  O_19
REMARK                            x       y       z     vdW  Elec       q    Type
REMARK                         _______ _______ _______ _____ _____    ______ ____
ROOT
ATOM      1  C   UNL     1       5.246   3.880 -22.763  0.00  0.00    +0.203 A 
ATOM      2  C   UNL     1       5.873   2.903 -22.177  0.00  0.00    +0.163 A 
ATOM      3  C   UNL     1       5.205   1.896 -21.699  0.00  0.00    +0.064 A 
ATOM      4  C   UNL     1       3.910   1.866 -21.806  0.00  0.00    +0.072 A 
ATOM      5  C   UNL     1       3.282   2.842 -22.392  0.00  0.00    +0.044 A 
ATOM      6  C   UNL     1       1.987   2.812 -22.499  0.00  0.00    +0.196 C 
ATOM      7  O   UNL     1       1.360   3.788 -23.085  0.00  0.00    -0.360 OA
ATOM      8  C   UNL     1       0.065   3.757 -23.192  0.00  0.00    +0.175 C 
ATOM      9  C   UNL     1      -0.603   2.750 -22.714  0.00  0.00    +0.178 C 
ATOM     10  C   UNL     1       0.024   1.774 -22.128  0.00  0.00    +0.189 C 
ATOM     11  C   UNL     1       1.319   1.805 -22.021  0.00  0.00    +0.241 C 
ATOM     12  O   UNL     1       1.946   0.827 -21.435  0.00  0.00    -0.452 OA
ATOM     13  C   UNL     1       3.241   0.858 -21.327  0.00  0.00    +0.340 C 
ATOM     14  O   UNL     1       3.869  -0.118 -20.742  0.00  0.00    -0.245 OA
ATOM     15  C   UNL     1       3.951   3.849 -22.870  0.00  0.00    +0.169 A 
ENDROOT
BRANCH   1  17
ATOM     16  C   UNL     1       6.250   5.873 -22.464  0.00  0.00    +0.277 C 
ATOM     17  O   UNL     1       5.914   4.887 -23.242  0.00  0.00    -0.489 OA
ENDBRANCH   1  17
BRANCH  10  18
ATOM     18  O   UNL     1      -0.644   0.766 -21.649  0.00  0.00    -0.385 OA
ATOM     19  H   UNL     1      -0.938   0.973 -20.748  0.00  0.00    +0.210 HD
ENDBRANCH  10  18
BRANCH   9  20
ATOM     20  O   UNL     1      -1.898   2.720 -22.821  0.00  0.00    -0.386 OA
ATOM     21  H   UNL     1      -2.167   3.179 -23.632  0.00  0.00    +0.210 HD
ENDBRANCH   9  20
BRANCH  15  22
ATOM     22  O   UNL     1       3.323   4.826 -23.457  0.00  0.00    -0.503 OA
ATOM     23  H   UNL     1       3.770   5.359 -24.085  0.00  0.00    +0.292 HD
ENDBRANCH  15  22
BRANCH   2  24
ATOM     24  O   UNL     1       7.168   2.934 -22.070  0.00  0.00    -0.503 OA
ATOM     25  H   UNL     1       7.681   3.382 -22.714  0.00  0.00    +0.292 HD
ENDBRANCH   2  24
BRANCH   8  26
ATOM     26  C   UNL     1      -0.562   4.734 -23.778  0.00  0.00    +0.190 C 
BRANCH  26  27
ATOM     27  O   UNL     1      -0.337   5.962 -23.415  0.00  0.00    -0.392 OA
ATOM     28  H   UNL     1       0.487   6.002 -22.905  0.00  0.00    +0.210 HD
ENDBRANCH  26  27
ENDBRANCH   8  26
TORSDOF 7
ENDMDL
MODEL 8
REMARK VINA RESULT:    -7.543      3.692      5.548
REMARK INTER + INTRA:          -9.526
REMARK INTER:                  -9.438
REMARK INTRA:                  -0.088
REMARK UNBOUND:                 0.001
REMARK  Name = ZINC000003871710
REMARK  8 active torsions:
REMARK  status: ('A' for Active; 'I' for Inactive)
REMARK    1  A    between atoms: C_1  and  O_2
REMARK    2  A    between atoms: O_2  and  C_3
REMARK    3  A    between atoms: C_4  and  O_5
REMARK    4  A    between atoms: C_9  and  O_10
REMARK    5  A    between atoms: C_13  and  C_14
REMARK    6  A    between atoms: C_14  and  O_15
REMARK    7  A    between atoms: C_16  and  O_17
REMARK    8  A    between atoms: C_18  and  O_19
REMARK                            x       y       z     vdW  Elec       q    Type
REMARK                         _______ _______ _______ _____ _____    ______ ____
ROOT
ATOM      1  C   UNL     1       0.794   4.372 -23.892  0.00  0.00    +0.203 A 
ATOM      2  C   UNL     1       0.480   3.210 -24.381  0.00  0.00    +0.163 A 
ATOM      3  C   UNL     1       1.388   2.288 -24.500  0.00  0.00    +0.064 A 
ATOM      4  C   UNL     1       2.611   2.528 -24.129  0.00  0.00    +0.072 A 
ATOM      5  C   UNL     1       2.925   3.691 -23.640  0.00  0.00    +0.044 A 
ATOM      6  C   UNL     1       4.148   3.931 -23.269  0.00  0.00    +0.196 C 
ATOM      7  O   UNL     1       4.462   5.094 -22.780  0.00  0.00    -0.360 OA
ATOM      8  C   UNL     1       5.685   5.334 -22.410  0.00  0.00    +0.175 C 
ATOM      9  C   UNL     1       6.593   4.412 -22.528  0.00  0.00    +0.178 C 
ATOM     10  C   UNL     1       6.279   3.250 -23.017  0.00  0.00    +0.189 C 
ATOM     11  C   UNL     1       5.056   3.009 -23.388  0.00  0.00    +0.241 C 
ATOM     12  O   UNL     1       4.742   1.846 -23.877  0.00  0.00    -0.452 OA
ATOM     13  C   UNL     1       3.520   1.605 -24.248  0.00  0.00    +0.340 C 
ATOM     14  O   UNL     1       3.205   0.443 -24.737  0.00  0.00    -0.245 OA
ATOM     15  C   UNL     1       2.017   4.613 -23.521  0.00  0.00    +0.169 A 
ENDROOT
BRANCH   1  17
ATOM     16  C   UNL     1      -0.944   5.264 -22.773  0.00  0.00    +0.277 C 
ATOM     17  O   UNL     1      -0.114   5.295 -23.773  0.00  0.00    -0.489 OA
ENDBRANCH   1  17
BRANCH  10  18
ATOM     18  O   UNL     1       7.188   2.327 -23.136  0.00  0.00    -0.385 OA
ATOM     19  H   UNL     1       7.868   2.454 -22.456  0.00  0.00    +0.210 HD
ENDBRANCH  10  18
BRANCH   9  20
ATOM     20  O   UNL     1       7.816   4.653 -22.158  0.00  0.00    -0.386 OA
ATOM     21  H   UNL     1       8.421   4.073 -22.645  0.00  0.00    +0.210 HD
ENDBRANCH   9  20
BRANCH  15  22
ATOM     22  O   UNL     1       2.331   5.776 -23.032  0.00  0.00    -0.503 OA
ATOM     23  H   UNL     1       2.081   6.558 -23.484  0.00  0.00    +0.292 HD
ENDBRANCH  15  22
BRANCH   2  24
ATOM     24  O   UNL     1      -0.742   2.969 -24.752  0.00  0.00    -0.503 OA
ATOM     25  H   UNL     1      -1.014   2.090 -24.929  0.00  0.00    +0.292 HD
ENDBRANCH   2  24
BRANCH   8  26
ATOM     26  C   UNL     1       5.999   6.497 -21.920  0.00  0.00    +0.190 C 
BRANCH  26  27
ATOM     27  O   UNL     1       6.152   6.642 -20.637  0.00  0.00    -0.392 OA
ATOM     28  H   UNL     1       5.937   7.554 -20.388  0.00  0.00    +0.210 HD
ENDBRANCH  26  27
ENDBRANCH   8  26
TORSDOF 7
ENDMDL
MODEL 9
REMARK VINA RESULT:    -7.174      2.637      4.081
REMARK INTER + INTRA:          -9.060
REMARK INTER:                  -9.061
REMARK INTRA:                   0.001
REMARK UNBOUND:                 0.001
REMARK  Name = ZINC000003871710
REMARK  8 active torsions:
REMARK  status: ('A' for Active; 'I' for Inactive)
REMARK    1  A    between atoms: C_1  and  O_2
REMARK    2  A    between atoms: O_2  and  C_3
REMARK    3  A    between atoms: C_4  and  O_5
REMARK    4  A    between atoms: C_9  and  O_10
REMARK    5  A    between atoms: C_13  and  C_14
REMARK    6  A    between atoms: C_14  and  O_15
REMARK    7  A    between atoms: C_16  and  O_17
REMARK    8  A    between atoms: C_18  and  O_19
REMARK                            x       y       z     vdW  Elec       q    Type
REMARK                         _______ _______ _______ _____ _____    ______ ____
ROOT
ATOM      1  C   UNL     1       0.416   2.700 -24.014  0.00  0.00    +0.203 A 
ATOM      2  C   UNL     1      -0.329   2.193 -23.078  0.00  0.00    +0.163 A 
ATOM      3  C   UNL     1       0.203   1.830 -21.949  0.00  0.00    +0.064 A 
ATOM      4  C   UNL     1       1.481   1.974 -21.757  0.00  0.00    +0.072 A 
ATOM      5  C   UNL     1       2.226   2.481 -22.693  0.00  0.00    +0.044 A 
ATOM      6  C   UNL     1       3.504   2.625 -22.501  0.00  0.00    +0.196 C 
ATOM      7  O   UNL     1       4.249   3.132 -23.437  0.00  0.00    -0.360 OA
ATOM      8  C   UNL     1       5.527   3.276 -23.245  0.00  0.00    +0.175 C 
ATOM      9  C   UNL     1       6.059   2.913 -22.116  0.00  0.00    +0.178 C 
ATOM     10  C   UNL     1       5.314   2.406 -21.180  0.00  0.00    +0.189 C 
ATOM     11  C   UNL     1       4.036   2.262 -21.372  0.00  0.00    +0.241 C 
ATOM     12  O   UNL     1       3.291   1.754 -20.435  0.00  0.00    -0.452 OA
ATOM     13  C   UNL     1       2.013   1.610 -20.627  0.00  0.00    +0.340 C 
ATOM     14  O   UNL     1       1.268   1.103 -19.691  0.00  0.00    -0.245 OA
ATOM     15  C   UNL     1       1.694   2.844 -23.822  0.00  0.00    +0.169 A 
ENDROOT
BRANCH   1  17
ATOM     16  C   UNL     1      -0.871   4.121 -25.195  0.00  0.00    +0.277 C 
ATOM     17  O   UNL     1      -0.116   3.064 -25.144  0.00  0.00    -0.489 OA
ENDBRANCH   1  17
BRANCH  10  18
ATOM     18  O   UNL     1       5.846   2.042 -20.050  0.00  0.00    -0.385 OA
ATOM     19  H   UNL     1       6.471   2.722 -19.754  0.00  0.00    +0.210 HD
ENDBRANCH  10  18
BRANCH   9  20
ATOM     20  O   UNL     1       7.337   3.057 -21.924  0.00  0.00    -0.386 OA
ATOM     21  H   UNL     1       7.498   3.868 -21.419  0.00  0.00    +0.210 HD
ENDBRANCH   9  20
BRANCH  15  22
ATOM     22  O   UNL     1       2.439   3.352 -24.759  0.00  0.00    -0.503 OA
ATOM     23  H   UNL     1       2.096   3.459 -25.624  0.00  0.00    +0.292 HD
ENDBRANCH  15  22
BRANCH   2  24
ATOM     24  O   UNL     1      -1.607   2.049 -23.270  0.00  0.00    -0.503 OA
ATOM     25  H   UNL     1      -2.195   2.069 -22.541  0.00  0.00    +0.292 HD
ENDBRANCH   2  24
BRANCH   8  26
ATOM     26  C   UNL     1       6.272   3.783 -24.181  0.00  0.00    +0.190 C 
BRANCH  26  27
ATOM     27  O   UNL     1       7.185   3.054 -24.753  0.00  0.00    -0.392 OA
ATOM     28  H   UNL     1       7.214   3.256 -25.700  0.00  0.00    +0.210 HD
ENDBRANCH  26  27
ENDBRANCH   8  26
TORSDOF 7
ENDMDL
