MODEL 1
REMARK VINA RESULT:   -11.314      0.000      0.000
REMARK INTER + INTRA:         -12.337
REMARK INTER:                 -12.186
REMARK INTRA:                  -0.150
REMARK UNBOUND:                -0.031
REMARK  Name = COc1ccc2c3c1O[C@]1(C)[C@H](O)C=C[C@H]4[C@@H](C2)N(C)CC[C@@]341       ZINC000253504999
REMARK  5 active torsions:
REMARK  status: ('A' for Active; 'I' for Inactive)
REMARK    1  A    between atoms: C_1  and  O_2
REMARK    2  A    between atoms: O_2  and  C_3
REMARK    3  A    between atoms: C_10  and  C_11
REMARK    4  A    between atoms: C_12  and  O_13
REMARK    5  A    between atoms: N_19  and  C_20
REMARK                            x       y       z     vdW  Elec       q    Type
REMARK                         _______ _______ _______ _____ _____    ______ ____
ROOT
ATOM      1  C   UNL     1       0.440   2.251 -23.351  0.00  0.00    +0.162 A 
ATOM      2  C   UNL     1       0.405   1.894 -22.138  0.00  0.00    +0.050 A 
ATOM      3  C   UNL     1      -0.666   1.947 -21.490  0.00  0.00    +0.008 A 
ATOM      4  C   UNL     1      -1.713   2.358 -22.047  0.00  0.00    -0.034 A 
ATOM      5  C   UNL     1      -1.697   2.718 -23.255  0.00  0.00    +0.012 A 
ATOM      6  C   UNL     1      -2.742   3.126 -23.808  0.00  0.00    +0.058 C 
ATOM      7  C   UNL     1      -3.865   3.607 -24.541  0.00  0.00    +0.067 C 
ATOM      8  C   UNL     1      -5.086   3.679 -23.837  0.00  0.00    +0.132 C 
ATOM      9  N   UNL     1      -5.087   3.272 -22.486  0.00  0.00    +0.236 N 
ATOM     10  H   UNL     1      -5.941   3.303 -21.929  0.00  0.00    +0.203 HD
ATOM     11  C   UNL     1      -6.127   3.305 -21.792  0.00  0.00    +0.190 C 
ATOM     12  C   UNL     1      -3.845   2.823 -21.949  0.00  0.00    +0.076 C 
ATOM     13  C   UNL     1      -3.813   3.181 -23.163  0.00  0.00    +0.075 C 
ATOM     14  C   UNL     1      -4.868   3.594 -23.723  0.00  0.00    -0.019 C 
ATOM     15  C   UNL     1      -4.844   3.949 -24.924  0.00  0.00    +0.004 C 
ATOM     16  C   UNL     1      -3.765   3.897 -25.581  0.00  0.00    +0.181 C 
ATOM     17  C   UNL     1      -2.720   3.489 -25.029  0.00  0.00    +0.148 C 
ATOM     18  C   UNL     1      -2.411   3.772 -26.208  0.00  0.00    +0.060 C 
ATOM     19  O   UNL     1      -1.247   3.189 -25.170  0.00  0.00    -0.478 OA
ATOM     20  C   UNL     1      -2.803   2.414 -21.392  0.00  0.00    +0.090 C 
ATOM     21  C   UNL     1      -0.619   2.665 -23.911  0.00  0.00    +0.167 A 
ENDROOT
BRANCH   1  23
ATOM     22  C   UNL     1       2.199   3.228 -24.159  0.00  0.00    +0.277 C 
ATOM     23  O   UNL     1       1.512   2.195 -23.993  0.00  0.00    -0.491 OA
ENDBRANCH   1  23
BRANCH  16  24
ATOM     24  O   UNL     1      -3.743   4.253 -26.782  0.00  0.00    -0.384 OA
ATOM     25  H   UNL     1      -3.204   3.630 -27.294  0.00  0.00    +0.210 HD
ENDBRANCH  16  24
TORSDOF 2
ENDMDL
MODEL 2
REMARK VINA RESULT:   -10.702      2.192      5.082
REMARK INTER + INTRA:         -11.671
REMARK INTER:                 -11.557
REMARK INTRA:                  -0.114
REMARK UNBOUND:                -0.031
REMARK  Name = COc1ccc2c3c1O[C@]1(C)[C@H](O)C=C[C@H]4[C@@H](C2)N(C)CC[C@@]341       ZINC000253504999
REMARK  5 active torsions:
REMARK  status: ('A' for Active; 'I' for Inactive)
REMARK    1  A    between atoms: C_1  and  O_2
REMARK    2  A    between atoms: O_2  and  C_3
REMARK    3  A    between atoms: C_10  and  C_11
REMARK    4  A    between atoms: C_12  and  O_13
REMARK    5  A    between atoms: N_19  and  C_20
REMARK                            x       y       z     vdW  Elec       q    Type
REMARK                         _______ _______ _______ _____ _____    ______ ____
ROOT
ATOM      1  C   UNL     1      -3.264   3.211 -22.683  0.00  0.00    +0.162 A 
ATOM      2  C   UNL     1      -3.391   2.642 -21.560  0.00  0.00    +0.050 A 
ATOM      3  C   UNL     1      -2.418   2.058 -21.030  0.00  0.00    +0.008 A 
ATOM      4  C   UNL     1      -1.308   2.037 -21.615  0.00  0.00    -0.034 A 
ATOM      5  C   UNL     1      -1.163   2.599 -22.733  0.00  0.00    +0.012 A 
ATOM      6  C   UNL     1      -0.055   2.576 -23.314  0.00  0.00    +0.058 C 
ATOM      7  C   UNL     1       1.154   2.616 -24.067  0.00  0.00    +0.067 C 
ATOM      8  C   UNL     1       2.268   1.966 -23.494  0.00  0.00    +0.132 C 
ATOM      9  N   UNL     1       2.088   1.342 -22.243  0.00  0.00    +0.236 N 
ATOM     10  H   UNL     1       2.859   0.857 -21.781  0.00  0.00    +0.203 HD
ATOM     11  C   UNL     1       3.025   0.745 -21.666  0.00  0.00    +0.190 C 
ATOM     12  C   UNL     1       0.788   1.424 -21.663  0.00  0.00    +0.076 C 
ATOM     13  C   UNL     1       0.919   1.993 -22.786  0.00  0.00    +0.075 C 
ATOM     14  C   UNL     1       2.037   1.971 -23.375  0.00  0.00    -0.019 C 
ATOM     15  C   UNL     1       2.173   2.532 -24.486  0.00  0.00    +0.004 C 
ATOM     16  C   UNL     1       1.194   3.123 -25.025  0.00  0.00    +0.181 C 
ATOM     17  C   UNL     1       0.086   3.146 -24.445  0.00  0.00    +0.148 C 
ATOM     18  C   UNL     1      -0.062   3.773 -25.518  0.00  0.00    +0.060 C 
ATOM     19  O   UNL     1      -1.352   3.603 -24.479  0.00  0.00    -0.478 OA
ATOM     20  C   UNL     1      -0.317   1.444 -21.079  0.00  0.00    +0.090 C 
ATOM     21  C   UNL     1      -2.141   3.188 -23.271  0.00  0.00    +0.167 A 
ENDROOT
BRANCH   1  23
ATOM     22  C   UNL     1      -5.401   3.558 -22.809  0.00  0.00    +0.277 C 
ATOM     23  O   UNL     1      -4.239   3.793 -23.208  0.00  0.00    -0.491 OA
ENDBRANCH   1  23
BRANCH  16  24
ATOM     24  O   UNL     1       1.333   3.683 -26.137  0.00  0.00    -0.384 OA
ATOM     25  H   UNL     1       1.147   4.631 -26.046  0.00  0.00    +0.210 HD
ENDBRANCH  16  24
TORSDOF 2
ENDMDL
MODEL 3
REMARK VINA RESULT:   -10.464      1.005      1.488
REMARK INTER + INTRA:         -11.412
REMARK INTER:                 -11.299
REMARK INTRA:                  -0.113
REMARK UNBOUND:                -0.031
REMARK  Name = COc1ccc2c3c1O[C@]1(C)[C@H](O)C=C[C@H]4[C@@H](C2)N(C)CC[C@@]341       ZINC000253504999
REMARK  5 active torsions:
REMARK  status: ('A' for Active; 'I' for Inactive)
REMARK    1  A    between atoms: C_1  and  O_2
REMARK    2  A    between atoms: O_2  and  C_3
REMARK    3  A    between atoms: C_10  and  C_11
REMARK    4  A    between atoms: C_12  and  O_13
REMARK    5  A    between atoms: N_19  and  C_20
REMARK                            x       y       z     vdW  Elec       q    Type
REMARK                         _______ _______ _______ _____ _____    ______ ____
ROOT
ATOM      1  C   UNL     1       1.697   2.244 -23.716  0.00  0.00    +0.162 A 
ATOM      2  C   UNL     1       1.956   1.784 -22.567  0.00  0.00    +0.050 A 
ATOM      3  C   UNL     1       1.051   1.664 -21.711  0.00  0.00    +0.008 A 
ATOM      4  C   UNL     1      -0.124   2.004 -21.992  0.00  0.00    -0.034 A 
ATOM      5  C   UNL     1      -0.402   2.465 -23.131  0.00  0.00    +0.012 A 
ATOM      6  C   UNL     1      -1.574   2.803 -23.409  0.00  0.00    +0.058 C 
ATOM      7  C   UNL     1      -2.867   3.219 -23.838  0.00  0.00    +0.067 C 
ATOM      8  C   UNL     1      -3.908   3.096 -22.893  0.00  0.00    +0.132 C 
ATOM      9  N   UNL     1      -3.580   2.578 -21.624  0.00  0.00    +0.236 N 
ATOM     10  H   UNL     1      -4.293   2.467 -20.901  0.00  0.00    +0.203 HD
ATOM     11  C   UNL     1      -4.444   2.437 -20.729  0.00  0.00    +0.190 C 
ATOM     12  C   UNL     1      -2.217   2.223 -21.406  0.00  0.00    +0.076 C 
ATOM     13  C   UNL     1      -2.481   2.684 -22.555  0.00  0.00    +0.075 C 
ATOM     14  C   UNL     1      -3.664   3.026 -22.837  0.00  0.00    -0.019 C 
ATOM     15  C   UNL     1      -3.932   3.483 -23.972  0.00  0.00    +0.004 C 
ATOM     16  C   UNL     1      -3.021   3.606 -24.840  0.00  0.00    +0.181 C 
ATOM     17  C   UNL     1      -1.849   3.268 -24.562  0.00  0.00    +0.148 C 
ATOM     18  C   UNL     1      -1.829   3.684 -25.743  0.00  0.00    +0.060 C 
ATOM     19  O   UNL     1      -0.421   3.145 -25.036  0.00  0.00    -0.478 OA
ATOM     20  C   UNL     1      -1.047   1.884 -21.124  0.00  0.00    +0.090 C 
ATOM     21  C   UNL     1       0.509   2.587 -23.998  0.00  0.00    +0.167 A 
ENDROOT
BRANCH   1  23
ATOM     22  C   UNL     1       3.741   1.889 -24.346  0.00  0.00    +0.277 C 
ATOM     23  O   UNL     1       2.604   2.362 -24.569  0.00  0.00    -0.491 OA
ENDBRANCH   1  23
BRANCH  16  24
ATOM     24  O   UNL     1      -3.291   4.064 -25.974  0.00  0.00    -0.384 OA
ATOM     25  H   UNL     1      -4.240   3.959 -26.147  0.00  0.00    +0.210 HD
ENDBRANCH  16  24
TORSDOF 2
ENDMDL
MODEL 4
REMARK VINA RESULT:   -10.393      2.134      5.496
REMARK INTER + INTRA:         -11.335
REMARK INTER:                 -11.251
REMARK INTRA:                  -0.085
REMARK UNBOUND:                -0.031
REMARK  Name = COc1ccc2c3c1O[C@]1(C)[C@H](O)C=C[C@H]4[C@@H](C2)N(C)CC[C@@]341       ZINC000253504999
REMARK  5 active torsions:
REMARK  status: ('A' for Active; 'I' for Inactive)
REMARK    1  A    between atoms: C_1  and  O_2
REMARK    2  A    between atoms: O_2  and  C_3
REMARK    3  A    between atoms: C_10  and  C_11
REMARK    4  A    between atoms: C_12  and  O_13
REMARK    5  A    between atoms: N_19  and  C_20
REMARK                            x       y       z     vdW  Elec       q    Type
REMARK                         _______ _______ _______ _____ _____    ______ ____
ROOT
ATOM      1  C   UNL     1      -4.631   3.722 -23.044  0.00  0.00    +0.162 A 
ATOM      2  C   UNL     1      -4.808   4.186 -24.207  0.00  0.00    +0.050 A 
ATOM      3  C   UNL     1      -3.868   4.203 -25.035  0.00  0.00    +0.008 A 
ATOM      4  C   UNL     1      -2.741   3.756 -24.709  0.00  0.00    -0.034 A 
ATOM      5  C   UNL     1      -2.546   3.289 -23.555  0.00  0.00    +0.012 A 
ATOM      6  C   UNL     1      -1.423   2.844 -23.233  0.00  0.00    +0.058 C 
ATOM      7  C   UNL     1      -0.190   2.312 -22.755  0.00  0.00    +0.067 C 
ATOM      8  C   UNL     1       0.888   2.318 -23.666  0.00  0.00    +0.132 C 
ATOM      9  N   UNL     1       0.653   2.843 -24.953  0.00  0.00    +0.236 N 
ATOM     10  H   UNL     1       1.396   2.872 -25.652  0.00  0.00    +0.203 HD
ATOM     11  C   UNL     1       1.555   2.885 -25.819  0.00  0.00    +0.190 C 
ATOM     12  C   UNL     1      -0.662   3.325 -25.221  0.00  0.00    +0.076 C 
ATOM     13  C   UNL     1      -0.481   2.860 -24.058  0.00  0.00    +0.075 C 
ATOM     14  C   UNL     1       0.653   2.410 -23.731  0.00  0.00    -0.019 C 
ATOM     15  C   UNL     1       0.839   1.948 -22.582  0.00  0.00    +0.004 C 
ATOM     16  C   UNL     1      -0.107   1.929 -21.743  0.00  0.00    +0.181 C 
ATOM     17  C   UNL     1      -1.231   2.374 -22.065  0.00  0.00    +0.148 C 
ATOM     18  C   UNL     1      -1.329   1.983 -20.880  0.00  0.00    +0.060 C 
ATOM     19  O   UNL     1      -2.655   2.643 -21.641  0.00  0.00    -0.478 OA
ATOM     20  C   UNL     1      -1.783   3.771 -25.547  0.00  0.00    +0.090 C 
ATOM     21  C   UNL     1      -3.492   3.271 -22.718  0.00  0.00    +0.167 A 
ENDROOT
BRANCH   1  23
ATOM     22  C   UNL     1      -5.997   2.620 -21.771  0.00  0.00    +0.277 C 
ATOM     23  O   UNL     1      -5.573   3.707 -22.221  0.00  0.00    -0.491 OA
ENDBRANCH   1  23
BRANCH  16  24
ATOM     24  O   UNL     1       0.080   1.467 -20.595  0.00  0.00    -0.384 OA
ATOM     25  H   UNL     1       1.031   1.464 -20.398  0.00  0.00    +0.210 HD
ENDBRANCH  16  24
TORSDOF 2
ENDMDL
MODEL 5
REMARK VINA RESULT:   -10.117      1.978      4.435
REMARK INTER + INTRA:         -11.035
REMARK INTER:                 -10.910
REMARK INTRA:                  -0.126
REMARK UNBOUND:                -0.031
REMARK  Name = COc1ccc2c3c1O[C@]1(C)[C@H](O)C=C[C@H]4[C@@H](C2)N(C)CC[C@@]341       ZINC000253504999
REMARK  5 active torsions:
REMARK  status: ('A' for Active; 'I' for Inactive)
REMARK    1  A    between atoms: C_1  and  O_2
REMARK    2  A    between atoms: O_2  and  C_3
REMARK    3  A    between atoms: C_10  and  C_11
REMARK    4  A    between atoms: C_12  and  O_13
REMARK    5  A    between atoms: N_19  and  C_20
REMARK                            x       y       z     vdW  Elec       q    Type
REMARK                         _______ _______ _______ _____ _____    ______ ____
ROOT
ATOM      1  C   UNL     1      -4.978   3.224 -21.966  0.00  0.00    +0.162 A 
ATOM      2  C   UNL     1      -4.521   3.009 -20.807  0.00  0.00    +0.050 A 
ATOM      3  C   UNL     1      -3.291   2.869 -20.624  0.00  0.00    +0.008 A 
ATOM      4  C   UNL     1      -2.502   2.943 -21.597  0.00  0.00    -0.034 A 
ATOM      5  C   UNL     1      -2.938   3.157 -22.760  0.00  0.00    +0.012 A 
ATOM      6  C   UNL     1      -2.150   3.230 -23.728  0.00  0.00    +0.058 C 
ATOM      7  C   UNL     1      -1.351   3.333 -24.904  0.00  0.00    +0.067 C 
ATOM      8  C   UNL     1       0.041   3.179 -24.728  0.00  0.00    +0.132 C 
ATOM      9  N   UNL     1       0.512   2.940 -23.421  0.00  0.00    +0.236 N 
ATOM     10  H   UNL     1       1.509   2.821 -23.235  0.00  0.00    +0.203 HD
ATOM     11  C   UNL     1       1.731   2.793 -23.180  0.00  0.00    +0.190 C 
ATOM     12  C   UNL     1      -0.466   2.875 -22.386  0.00  0.00    +0.076 C 
ATOM     13  C   UNL     1      -0.919   3.090 -23.548  0.00  0.00    +0.075 C 
ATOM     14  C   UNL     1      -0.124   3.164 -24.528  0.00  0.00    -0.019 C 
ATOM     15  C   UNL     1      -0.566   3.377 -25.680  0.00  0.00    +0.004 C 
ATOM     16  C   UNL     1      -1.808   3.519 -25.870  0.00  0.00    +0.181 C 
ATOM     17  C   UNL     1      -2.596   3.447 -24.901  0.00  0.00    +0.148 C 
ATOM     18  C   UNL     1      -3.298   3.663 -25.916  0.00  0.00    +0.060 C 
ATOM     19  O   UNL     1      -4.028   3.506 -24.427  0.00  0.00    -0.478 OA
ATOM     20  C   UNL     1      -1.250   2.801 -21.415  0.00  0.00    +0.090 C 
ATOM     21  C   UNL     1      -4.179   3.299 -22.948  0.00  0.00    +0.167 A 
ENDROOT
BRANCH   1  23
ATOM     22  C   UNL     1      -7.006   2.500 -21.718  0.00  0.00    +0.277 C 
ATOM     23  O   UNL     1      -6.208   3.364 -22.144  0.00  0.00    -0.491 OA
ENDBRANCH   1  23
BRANCH  16  24
ATOM     24  O   UNL     1      -2.247   3.733 -27.023  0.00  0.00    -0.384 OA
ATOM     25  H   UNL     1      -1.675   4.374 -27.474  0.00  0.00    +0.210 HD
ENDBRANCH  16  24
TORSDOF 2
ENDMDL
MODEL 6
REMARK VINA RESULT:    -9.885      1.747      3.195
REMARK INTER + INTRA:         -10.782
REMARK INTER:                 -10.634
REMARK INTRA:                  -0.149
REMARK UNBOUND:                -0.031
REMARK  Name = COc1ccc2c3c1O[C@]1(C)[C@H](O)C=C[C@H]4[C@@H](C2)N(C)CC[C@@]341       ZINC000253504999
REMARK  5 active torsions:
REMARK  status: ('A' for Active; 'I' for Inactive)
REMARK    1  A    between atoms: C_1  and  O_2
REMARK    2  A    between atoms: O_2  and  C_3
REMARK    3  A    between atoms: C_10  and  C_11
REMARK    4  A    between atoms: C_12  and  O_13
REMARK    5  A    between atoms: N_19  and  C_20
REMARK                            x       y       z     vdW  Elec       q    Type
REMARK                         _______ _______ _______ _____ _____    ______ ____
ROOT
ATOM      1  C   UNL     1       1.185   3.105 -23.941  0.00  0.00    +0.162 A 
ATOM      2  C   UNL     1       1.181   3.303 -25.191  0.00  0.00    +0.050 A 
ATOM      3  C   UNL     1       0.105   3.501 -25.799  0.00  0.00    +0.008 A 
ATOM      4  C   UNL     1      -0.979   3.503 -25.167  0.00  0.00    -0.034 A 
ATOM      5  C   UNL     1      -0.995   3.308 -23.922  0.00  0.00    +0.012 A 
ATOM      6  C   UNL     1      -2.076   3.310 -23.294  0.00  0.00    +0.058 C 
ATOM      7  C   UNL     1      -3.243   3.291 -22.477  0.00  0.00    +0.067 C 
ATOM      8  C   UNL     1      -4.472   3.511 -23.135  0.00  0.00    +0.132 C 
ATOM      9  N   UNL     1      -4.437   3.728 -24.528  0.00  0.00    +0.236 N 
ATOM     10  H   UNL     1      -5.294   3.893 -25.056  0.00  0.00    +0.203 HD
ATOM     11  C   UNL     1      -5.481   3.931 -25.187  0.00  0.00    +0.190 C 
ATOM     12  C   UNL     1      -3.154   3.706 -25.151  0.00  0.00    +0.076 C 
ATOM     13  C   UNL     1      -3.154   3.508 -23.901  0.00  0.00    +0.075 C 
ATOM     14  C   UNL     1      -4.246   3.510 -23.265  0.00  0.00    -0.019 C 
ATOM     15  C   UNL     1      -4.253   3.315 -22.028  0.00  0.00    +0.004 C 
ATOM     16  C   UNL     1      -3.169   3.115 -21.409  0.00  0.00    +0.181 C 
ATOM     17  C   UNL     1      -2.086   3.112 -22.036  0.00  0.00    +0.148 C 
ATOM     18  C   UNL     1      -1.802   2.896 -20.836  0.00  0.00    +0.060 C 
ATOM     19  O   UNL     1      -0.586   2.961 -21.972  0.00  0.00    -0.478 OA
ATOM     20  C   UNL     1      -2.075   3.704 -25.783  0.00  0.00    +0.090 C 
ATOM     21  C   UNL     1       0.089   3.108 -23.305  0.00  0.00    +0.167 A 
ENDROOT
BRANCH   1  23
ATOM     22  C   UNL     1       2.916   3.875 -22.887  0.00  0.00    +0.277 C 
ATOM     23  O   UNL     1       2.263   2.908 -23.338  0.00  0.00    -0.491 OA
ENDBRANCH   1  23
BRANCH  16  24
ATOM     24  O   UNL     1      -3.178   2.920 -20.172  0.00  0.00    -0.384 OA
ATOM     25  H   UNL     1      -2.266   2.841 -19.850  0.00  0.00    +0.210 HD
ENDBRANCH  16  24
TORSDOF 2
ENDMDL
MODEL 7
REMARK VINA RESULT:    -9.826      2.977      6.822
REMARK INTER + INTRA:         -10.719
REMARK INTER:                 -10.603
REMARK INTRA:                  -0.116
REMARK UNBOUND:                -0.031
REMARK  Name = COc1ccc2c3c1O[C@]1(C)[C@H](O)C=C[C@H]4[C@@H](C2)N(C)CC[C@@]341       ZINC000253504999
REMARK  5 active torsions:
REMARK  status: ('A' for Active; 'I' for Inactive)
REMARK    1  A    between atoms: C_1  and  O_2
REMARK    2  A    between atoms: O_2  and  C_3
REMARK    3  A    between atoms: C_10  and  C_11
REMARK    4  A    between atoms: C_12  and  O_13
REMARK    5  A    between atoms: N_19  and  C_20
REMARK                            x       y       z     vdW  Elec       q    Type
REMARK                         _______ _______ _______ _____ _____    ______ ____
ROOT
ATOM      1  C   UNL     1      -1.161   3.257 -23.386  0.00  0.00    +0.162 A 
ATOM      2  C   UNL     1      -1.254   4.493 -23.639  0.00  0.00    +0.050 A 
ATOM      3  C   UNL     1      -0.235   5.220 -23.637  0.00  0.00    +0.008 A 
ATOM      4  C   UNL     1       0.888   4.722 -23.383  0.00  0.00    -0.034 A 
ATOM      5  C   UNL     1       1.000   3.493 -23.129  0.00  0.00    +0.012 A 
ATOM      6  C   UNL     1       2.121   2.998 -22.875  0.00  0.00    +0.058 C 
ATOM      7  C   UNL     1       3.340   2.326 -22.574  0.00  0.00    +0.067 C 
ATOM      8  C   UNL     1       4.506   3.121 -22.564  0.00  0.00    +0.132 C 
ATOM      9  N   UNL     1       4.363   4.494 -22.851  0.00  0.00    +0.236 N 
ATOM     10  H   UNL     1       5.172   5.117 -22.858  0.00  0.00    +0.203 HD
ATOM     11  C   UNL     1       5.346   5.268 -22.863  0.00  0.00    +0.190 C 
ATOM     12  C   UNL     1       3.044   4.960 -23.126  0.00  0.00    +0.076 C 
ATOM     13  C   UNL     1       3.141   3.724 -22.873  0.00  0.00    +0.075 C 
ATOM     14  C   UNL     1       4.272   3.222 -22.617  0.00  0.00    -0.019 C 
ATOM     15  C   UNL     1       4.375   2.000 -22.365  0.00  0.00    +0.004 C 
ATOM     16  C   UNL     1       3.350   1.261 -22.366  0.00  0.00    +0.181 C 
ATOM     17  C   UNL     1       2.228   1.755 -22.619  0.00  0.00    +0.148 C 
ATOM     18  C   UNL     1       2.040   0.536 -22.409  0.00  0.00    +0.060 C 
ATOM     19  O   UNL     1       0.747   1.517 -22.781  0.00  0.00    -0.478 OA
ATOM     20  C   UNL     1       1.926   5.459 -23.380  0.00  0.00    +0.090 C 
ATOM     21  C   UNL     1      -0.025   2.756 -23.129  0.00  0.00    +0.167 A 
ENDROOT
BRANCH   1  23
ATOM     22  C   UNL     1      -3.306   3.032 -23.157  0.00  0.00    +0.277 C 
ATOM     23  O   UNL     1      -2.182   2.534 -23.389  0.00  0.00    -0.491 OA
ENDBRANCH   1  23
BRANCH  16  24
ATOM     24  O   UNL     1       3.455   0.039 -22.114  0.00  0.00    -0.384 OA
ATOM     25  H   UNL     1       2.589  -0.387 -22.212  0.00  0.00    +0.210 HD
ENDBRANCH  16  24
TORSDOF 2
ENDMDL
MODEL 8
REMARK VINA RESULT:    -9.709      2.700      6.534
REMARK INTER + INTRA:         -10.591
REMARK INTER:                 -10.451
REMARK INTRA:                  -0.141
REMARK UNBOUND:                -0.031
REMARK  Name = COc1ccc2c3c1O[C@]1(C)[C@H](O)C=C[C@H]4[C@@H](C2)N(C)CC[C@@]341       ZINC000253504999
REMARK  5 active torsions:
REMARK  status: ('A' for Active; 'I' for Inactive)
REMARK    1  A    between atoms: C_1  and  O_2
REMARK    2  A    between atoms: O_2  and  C_3
REMARK    3  A    between atoms: C_10  and  C_11
REMARK    4  A    between atoms: C_12  and  O_13
REMARK    5  A    between atoms: N_19  and  C_20
REMARK                            x       y       z     vdW  Elec       q    Type
REMARK                         _______ _______ _______ _____ _____    ______ ____
ROOT
ATOM      1  C   UNL     1      -1.745   2.884 -24.057  0.00  0.00    +0.162 A 
ATOM      2  C   UNL     1      -1.458   3.411 -25.170  0.00  0.00    +0.050 A 
ATOM      3  C   UNL     1      -0.265   3.633 -25.480  0.00  0.00    +0.008 A 
ATOM      4  C   UNL     1       0.654   3.331 -24.680  0.00  0.00    -0.034 A 
ATOM      5  C   UNL     1       0.388   2.806 -23.567  0.00  0.00    +0.012 A 
ATOM      6  C   UNL     1       1.305   2.506 -22.772  0.00  0.00    +0.058 C 
ATOM      7  C   UNL     1       2.264   2.124 -21.789  0.00  0.00    +0.067 C 
ATOM      8  C   UNL     1       3.617   2.362 -22.110  0.00  0.00    +0.132 C 
ATOM      9  N   UNL     1       3.898   2.951 -23.360  0.00  0.00    +0.236 N 
ATOM     10  H   UNL     1       4.859   3.146 -23.645  0.00  0.00    +0.203 HD
ATOM     11  C   UNL     1       5.071   3.196 -23.721  0.00  0.00    +0.190 C 
ATOM     12  C   UNL     1       2.782   3.255 -24.194  0.00  0.00    +0.076 C 
ATOM     13  C   UNL     1       2.499   2.727 -23.078  0.00  0.00    +0.075 C 
ATOM     14  C   UNL     1       3.425   2.424 -22.274  0.00  0.00    -0.019 C 
ATOM     15  C   UNL     1       3.151   1.902 -21.169  0.00  0.00    +0.004 C 
ATOM     16  C   UNL     1       1.949   1.675 -20.852  0.00  0.00    +0.181 C 
ATOM     17  C   UNL     1       1.030   1.975 -21.647  0.00  0.00    +0.148 C 
ATOM     18  C   UNL     1       0.480   1.478 -20.639  0.00  0.00    +0.060 C 
ATOM     19  O   UNL     1      -0.455   1.996 -21.916  0.00  0.00    -0.478 OA
ATOM     20  C   UNL     1       1.868   3.556 -24.991  0.00  0.00    +0.090 C 
ATOM     21  C   UNL     1      -0.814   2.580 -23.251  0.00  0.00    +0.167 A 
ENDROOT
BRANCH   1  23
ATOM     22  C   UNL     1      -3.516   3.388 -22.912  0.00  0.00    +0.277 C 
ATOM     23  O   UNL     1      -2.938   2.663 -23.752  0.00  0.00    -0.491 OA
ENDBRANCH   1  23
BRANCH  16  24
ATOM     24  O   UNL     1       1.678   1.153 -19.747  0.00  0.00    -0.384 OA
ATOM     25  H   UNL     1       2.434   1.252 -19.148  0.00  0.00    +0.210 HD
ENDBRANCH  16  24
TORSDOF 2
ENDMDL
MODEL 9
REMARK VINA RESULT:    -8.762      3.216      5.149
REMARK INTER + INTRA:          -9.561
REMARK INTER:                  -9.530
REMARK INTRA:                  -0.031
REMARK UNBOUND:                -0.031
REMARK  Name = COc1ccc2c3c1O[C@]1(C)[C@H](O)C=C[C@H]4[C@@H](C2)N(C)CC[C@@]341       ZINC000253504999
REMARK  5 active torsions:
REMARK  status: ('A' for Active; 'I' for Inactive)
REMARK    1  A    between atoms: C_1  and  O_2
REMARK    2  A    between atoms: O_2  and  C_3
REMARK    3  A    between atoms: C_10  and  C_11
REMARK    4  A    between atoms: C_12  and  O_13
REMARK    5  A    between atoms: N_19  and  C_20
REMARK                            x       y       z     vdW  Elec       q    Type
REMARK                         _______ _______ _______ _____ _____    ______ ____
ROOT
ATOM      1  C   UNL     1       5.025   1.883 -21.856  0.00  0.00    +0.162 A 
ATOM      2  C   UNL     1       4.660   0.708 -21.560  0.00  0.00    +0.050 A 
ATOM      3  C   UNL     1       3.455   0.378 -21.642  0.00  0.00    +0.008 A 
ATOM      4  C   UNL     1       2.601   1.217 -22.020  0.00  0.00    -0.034 A 
ATOM      5  C   UNL     1       2.946   2.391 -22.319  0.00  0.00    +0.012 A 
ATOM      6  C   UNL     1       2.094   3.225 -22.696  0.00  0.00    +0.058 C 
ATOM      7  C   UNL     1       1.216   4.257 -23.136  0.00  0.00    +0.067 C 
ATOM      8  C   UNL     1      -0.150   3.914 -23.238  0.00  0.00    +0.132 C 
ATOM      9  N   UNL     1      -0.519   2.596 -22.900  0.00  0.00    +0.236 N 
ATOM     10  H   UNL     1      -1.492   2.293 -22.955  0.00  0.00    +0.203 HD
ATOM     11  C   UNL     1      -1.708   2.211 -22.963  0.00  0.00    +0.190 C 
ATOM     12  C   UNL     1       0.527   1.722 -22.482  0.00  0.00    +0.076 C 
ATOM     13  C   UNL     1       0.889   2.898 -22.779  0.00  0.00    +0.075 C 
ATOM     14  C   UNL     1       0.029   3.742 -23.160  0.00  0.00    -0.019 C 
ATOM     15  C   UNL     1       0.380   4.907 -23.455  0.00  0.00    +0.004 C 
ATOM     16  C   UNL     1       1.596   5.245 -23.374  0.00  0.00    +0.181 C 
ATOM     17  C   UNL     1       2.449   4.411 -22.997  0.00  0.00    +0.148 C 
ATOM     18  C   UNL     1       3.068   5.476 -23.222  0.00  0.00    +0.060 C 
ATOM     19  O   UNL     1       3.902   4.134 -22.696  0.00  0.00    -0.478 OA
ATOM     20  C   UNL     1       1.375   0.885 -22.105  0.00  0.00    +0.090 C 
ATOM     21  C   UNL     1       4.161   2.728 -22.238  0.00  0.00    +0.167 A 
ENDROOT
BRANCH   1  23
ATOM     22  C   UNL     1       6.816   2.707 -22.759  0.00  0.00    +0.277 C 
ATOM     23  O   UNL     1       6.230   2.208 -21.772  0.00  0.00    -0.491 OA
ENDBRANCH   1  23
BRANCH  16  24
ATOM     24  O   UNL     1       1.945   6.411 -23.670  0.00  0.00    -0.384 OA
ATOM     25  H   UNL     1       2.204   6.885 -22.864  0.00  0.00    +0.210 HD
ENDBRANCH  16  24
TORSDOF 2
ENDMDL
