MODEL 1
REMARK VINA RESULT:    -8.529      0.000      0.000
REMARK INTER + INTRA:         -11.565
REMARK INTER:                 -11.183
REMARK INTRA:                  -0.382
REMARK UNBOUND:                -0.543
REMARK  Name = ZINC000008382457
REMARK  5 active torsions:
REMARK  status: ('A' for Active; 'I' for Inactive)
REMARK    1  A    between atoms: C_11  and  O_12
REMARK    2  A    between atoms: O_12  and  C_13
REMARK    3  A    between atoms: C_13  and  C_14
REMARK    4  A    between atoms: N_23  and  C_24
REMARK    5  A    between atoms: C_24  and  C_25
REMARK                            x       y       z     vdW  Elec       q    Type
REMARK                         _______ _______ _______ _____ _____    ______ ____
ROOT
ATOM      1  O   UNL     1       7.312   5.061 -22.041  0.00  0.00    -0.270 OA
ATOM      2  C   UNL     1       6.062   5.308 -22.297  0.00  0.00    +0.248 C 
ATOM      3  C   UNL     1       5.579   6.498 -22.093  0.00  0.00    +0.044 A 
ATOM      4  C   UNL     1       6.348   7.440 -21.631  0.00  0.00    +0.063 A 
ATOM      5  C   UNL     1       5.866   8.629 -21.426  0.00  0.00    +0.167 A 
ATOM      6  C   UNL     1       4.615   8.877 -21.683  0.00  0.00    +0.167 A 
ATOM      7  O   UNL     1       4.386  10.124 -21.396  0.00  0.00    -0.453 OA
ATOM      8  C   UNL     1       5.495  10.648 -20.962  0.00  0.00    +0.466 C 
ATOM      9  C   UNL     1       3.848   7.936 -22.143  0.00  0.00    +0.054 A 
ATOM     10  O   UNL     1       6.410   9.724 -20.981  0.00  0.00    -0.453 OA
ATOM     11  C   UNL     1       4.329   6.746 -22.349  0.00  0.00    -0.027 A 
ATOM     12  C   UNL     1       3.562   5.803 -22.810  0.00  0.00    +0.043 C 
ATOM     13  C   UNL     1       2.311   6.052 -23.066  0.00  0.00    +0.041 C 
ATOM     14  C   UNL     1       1.544   5.110 -23.527  0.00  0.00    +0.119 C 
ATOM     15  C   UNL     1       2.025   3.920 -23.733  0.00  0.00    +0.033 C 
ATOM     16  C   UNL     1       3.276   3.672 -23.476  0.00  0.00    +0.025 C 
ATOM     17  C   UNL     1       4.043   4.614 -23.015  0.00  0.00    +0.084 C 
ATOM     18  N   UNL     1       5.294   4.367 -22.759  0.00  0.00    -0.290 N 
ENDROOT
BRANCH  14  19
ATOM     19  O   UNL     1       0.293   5.357 -23.784  0.00  0.00    -0.372 OA
BRANCH  19  20
ATOM     20  C   UNL     1      -0.589   5.305 -22.830  0.00  0.00    +0.195 C 
BRANCH  20  21
ATOM     21  C   UNL     1      -1.655   4.574 -22.970  0.00  0.00    -0.022 A 
ATOM     22  C   UNL     1      -2.258   4.519 -24.120  0.00  0.00    +0.006 A 
ATOM     23  C   UNL     1      -3.325   3.788 -24.260  0.00  0.00    +0.000 A 
ATOM     24  C   UNL     1      -3.787   3.113 -23.249  0.00  0.00    +0.000 A 
ATOM     25  C   UNL     1      -3.184   3.169 -22.099  0.00  0.00    +0.000 A 
ATOM     26  C   UNL     1      -2.117   3.900 -21.959  0.00  0.00    +0.006 A 
ENDBRANCH  20  21
ENDBRANCH  19  20
ENDBRANCH  14  19
BRANCH  18  27
ATOM     27  C   UNL     1       5.776   3.177 -22.964  0.00  0.00    +0.143 C 
BRANCH  27  28
ATOM     28  C   UNL     1       5.429   2.192 -22.191  0.00  0.00    -0.030 A 
ATOM     29  C   UNL     1       4.837   1.150 -22.694  0.00  0.00    +0.005 A 
ATOM     30  C   UNL     1       4.489   0.163 -21.921  0.00  0.00    +0.000 A 
ATOM     31  C   UNL     1       4.733   0.220 -20.646  0.00  0.00    +0.000 A 
ATOM     32  C   UNL     1       5.325   1.262 -20.142  0.00  0.00    +0.000 A 
ATOM     33  C   UNL     1       5.673   2.248 -20.916  0.00  0.00    +0.005 A 
ENDBRANCH  27  28
ENDBRANCH  18  27
TORSDOF 5
ENDMDL
MODEL 2
REMARK VINA RESULT:    -8.523      1.852      2.947
REMARK INTER + INTRA:         -11.557
REMARK INTER:                 -11.226
REMARK INTRA:                  -0.332
REMARK UNBOUND:                -0.543
REMARK  Name = ZINC000008382457
REMARK  5 active torsions:
REMARK  status: ('A' for Active; 'I' for Inactive)
REMARK    1  A    between atoms: C_11  and  O_12
REMARK    2  A    between atoms: O_12  and  C_13
REMARK    3  A    between atoms: C_13  and  C_14
REMARK    4  A    between atoms: N_23  and  C_24
REMARK    5  A    between atoms: C_24  and  C_25
REMARK                            x       y       z     vdW  Elec       q    Type
REMARK                         _______ _______ _______ _____ _____    ______ ____
ROOT
ATOM      1  O   UNL     1       8.195   6.474 -21.776  0.00  0.00    -0.270 OA
ATOM      2  C   UNL     1       6.927   6.341 -22.028  0.00  0.00    +0.248 C 
ATOM      3  C   UNL     1       6.113   7.330 -21.805  0.00  0.00    +0.044 A 
ATOM      4  C   UNL     1       6.568   8.452 -21.332  0.00  0.00    +0.063 A 
ATOM      5  C   UNL     1       5.754   9.441 -21.109  0.00  0.00    +0.167 A 
ATOM      6  C   UNL     1       4.485   9.308 -21.361  0.00  0.00    +0.167 A 
ATOM      7  O   UNL     1       3.896  10.426 -21.056  0.00  0.00    -0.453 OA
ATOM      8  C   UNL     1       4.801  11.250 -20.617  0.00  0.00    +0.466 C 
ATOM      9  C   UNL     1       4.031   8.186 -21.834  0.00  0.00    +0.054 A 
ATOM     10  O   UNL     1       5.949  10.642 -20.649  0.00  0.00    -0.453 OA
ATOM     11  C   UNL     1       4.844   7.197 -22.056  0.00  0.00    -0.027 A 
ATOM     12  C   UNL     1       4.390   6.075 -22.530  0.00  0.00    +0.043 C 
ATOM     13  C   UNL     1       3.121   5.943 -22.781  0.00  0.00    +0.041 C 
ATOM     14  C   UNL     1       2.666   4.820 -23.254  0.00  0.00    +0.119 C 
ATOM     15  C   UNL     1       3.479   3.831 -23.477  0.00  0.00    +0.033 C 
ATOM     16  C   UNL     1       4.749   3.964 -23.226  0.00  0.00    +0.025 C 
ATOM     17  C   UNL     1       5.203   5.086 -22.752  0.00  0.00    +0.084 C 
ATOM     18  N   UNL     1       6.472   5.219 -22.501  0.00  0.00    -0.290 N 
ENDROOT
BRANCH  14  19
ATOM     19  O   UNL     1       1.398   4.687 -23.505  0.00  0.00    -0.372 OA
BRANCH  19  20
ATOM     20  C   UNL     1       0.847   3.510 -23.467  0.00  0.00    +0.195 C 
BRANCH  20  21
ATOM     21  C   UNL     1      -0.410   3.389 -23.160  0.00  0.00    -0.022 A 
ATOM     22  C   UNL     1      -0.770   2.594 -22.197  0.00  0.00    +0.006 A 
ATOM     23  C   UNL     1      -2.028   2.474 -21.890  0.00  0.00    +0.000 A 
ATOM     24  C   UNL     1      -2.925   3.149 -22.546  0.00  0.00    +0.000 A 
ATOM     25  C   UNL     1      -2.564   3.945 -23.509  0.00  0.00    +0.000 A 
ATOM     26  C   UNL     1      -1.306   4.065 -23.816  0.00  0.00    +0.006 A 
ENDBRANCH  20  21
ENDBRANCH  19  20
ENDBRANCH  14  19
BRANCH  18  27
ATOM     27  C   UNL     1       7.286   4.230 -22.723  0.00  0.00    +0.143 C 
BRANCH  27  28
ATOM     28  C   UNL     1       7.878   4.121 -23.875  0.00  0.00    -0.030 A 
ATOM     29  C   UNL     1       7.944   5.147 -24.671  0.00  0.00    +0.005 A 
ATOM     30  C   UNL     1       8.536   5.038 -25.824  0.00  0.00    +0.000 A 
ATOM     31  C   UNL     1       9.062   3.904 -26.180  0.00  0.00    +0.000 A 
ATOM     32  C   UNL     1       8.996   2.878 -25.384  0.00  0.00    +0.000 A 
ATOM     33  C   UNL     1       8.404   2.987 -24.231  0.00  0.00    +0.005 A 
ENDBRANCH  27  28
ENDBRANCH  18  27
TORSDOF 5
ENDMDL
MODEL 3
REMARK VINA RESULT:    -7.686      1.758      6.773
REMARK INTER + INTRA:         -10.475
REMARK INTER:                 -10.163
REMARK INTRA:                  -0.312
REMARK UNBOUND:                -0.543
REMARK  Name = ZINC000008382457
REMARK  5 active torsions:
REMARK  status: ('A' for Active; 'I' for Inactive)
REMARK    1  A    between atoms: C_11  and  O_12
REMARK    2  A    between atoms: O_12  and  C_13
REMARK    3  A    between atoms: C_13  and  C_14
REMARK    4  A    between atoms: N_23  and  C_24
REMARK    5  A    between atoms: C_24  and  C_25
REMARK                            x       y       z     vdW  Elec       q    Type
REMARK                         _______ _______ _______ _____ _____    ______ ____
ROOT
ATOM      1  O   UNL     1       1.933   1.044 -24.422  0.00  0.00    -0.270 OA
ATOM      2  C   UNL     1       2.064   2.284 -24.056  0.00  0.00    +0.248 C 
ATOM      3  C   UNL     1       1.031   3.075 -24.055  0.00  0.00    +0.044 A 
ATOM      4  C   UNL     1      -0.132   2.623 -24.419  0.00  0.00    +0.063 A 
ATOM      5  C   UNL     1      -1.165   3.412 -24.418  0.00  0.00    +0.167 A 
ATOM      6  C   UNL     1      -1.034   4.654 -24.051  0.00  0.00    +0.167 A 
ATOM      7  O   UNL     1      -2.200   5.223 -24.138  0.00  0.00    -0.453 OA
ATOM      8  C   UNL     1      -3.051   4.334 -24.557  0.00  0.00    +0.466 C 
ATOM      9  C   UNL     1       0.129   5.104 -23.688  0.00  0.00    +0.054 A 
ATOM     10  O   UNL     1      -2.412   3.215 -24.730  0.00  0.00    -0.453 OA
ATOM     11  C   UNL     1       1.162   4.315 -23.689  0.00  0.00    -0.027 A 
ATOM     12  C   UNL     1       2.326   4.766 -23.325  0.00  0.00    +0.043 C 
ATOM     13  C   UNL     1       2.456   6.007 -22.959  0.00  0.00    +0.041 C 
ATOM     14  C   UNL     1       3.619   6.457 -22.595  0.00  0.00    +0.119 C 
ATOM     15  C   UNL     1       4.653   5.668 -22.596  0.00  0.00    +0.033 C 
ATOM     16  C   UNL     1       4.522   4.427 -22.962  0.00  0.00    +0.025 C 
ATOM     17  C   UNL     1       3.358   3.976 -23.326  0.00  0.00    +0.084 C 
ATOM     18  N   UNL     1       3.227   2.736 -23.692  0.00  0.00    -0.290 N 
ENDROOT
BRANCH  14  19
ATOM     19  O   UNL     1       3.750   7.698 -22.229  0.00  0.00    -0.372 OA
BRANCH  19  20
ATOM     20  C   UNL     1       4.881   8.116 -21.742  0.00  0.00    +0.195 C 
BRANCH  20  21
ATOM     21  C   UNL     1       5.046   9.377 -21.471  0.00  0.00    -0.022 A 
ATOM     22  C   UNL     1       6.090  10.008 -21.920  0.00  0.00    +0.006 A 
ATOM     23  C   UNL     1       6.254  11.269 -21.648  0.00  0.00    +0.000 A 
ATOM     24  C   UNL     1       5.373  11.898 -20.928  0.00  0.00    +0.000 A 
ATOM     25  C   UNL     1       4.329  11.267 -20.479  0.00  0.00    +0.000 A 
ATOM     26  C   UNL     1       4.165  10.006 -20.750  0.00  0.00    +0.006 A 
ENDBRANCH  20  21
ENDBRANCH  19  20
ENDBRANCH  14  19
BRANCH  18  27
ATOM     27  C   UNL     1       4.260   1.946 -23.694  0.00  0.00    +0.143 C 
BRANCH  27  28
ATOM     28  C   UNL     1       4.560   1.265 -22.628  0.00  0.00    -0.030 A 
ATOM     29  C   UNL     1       3.627   0.939 -21.783  0.00  0.00    +0.005 A 
ATOM     30  C   UNL     1       3.927   0.257 -20.716  0.00  0.00    +0.000 A 
ATOM     31  C   UNL     1       5.157  -0.099 -20.497  0.00  0.00    +0.000 A 
ATOM     32  C   UNL     1       6.090   0.227 -21.342  0.00  0.00    +0.000 A 
ATOM     33  C   UNL     1       5.790   0.909 -22.409  0.00  0.00    +0.005 A 
ENDBRANCH  27  28
ENDBRANCH  18  27
TORSDOF 5
ENDMDL
MODEL 4
REMARK VINA RESULT:    -7.611      2.374      6.637
REMARK INTER + INTRA:         -10.379
REMARK INTER:                  -9.840
REMARK INTRA:                  -0.539
REMARK UNBOUND:                -0.543
REMARK  Name = ZINC000008382457
REMARK  5 active torsions:
REMARK  status: ('A' for Active; 'I' for Inactive)
REMARK    1  A    between atoms: C_11  and  O_12
REMARK    2  A    between atoms: O_12  and  C_13
REMARK    3  A    between atoms: C_13  and  C_14
REMARK    4  A    between atoms: N_23  and  C_24
REMARK    5  A    between atoms: C_24  and  C_25
REMARK                            x       y       z     vdW  Elec       q    Type
REMARK                         _______ _______ _______ _____ _____    ______ ____
ROOT
ATOM      1  O   UNL     1       5.131   2.436 -23.846  0.00  0.00    -0.270 OA
ATOM      2  C   UNL     1       4.772   3.612 -23.425  0.00  0.00    +0.248 C 
ATOM      3  C   UNL     1       3.525   3.974 -23.492  0.00  0.00    +0.044 A 
ATOM      4  C   UNL     1       2.637   3.159 -23.980  0.00  0.00    +0.063 A 
ATOM      5  C   UNL     1       1.391   3.521 -24.047  0.00  0.00    +0.167 A 
ATOM      6  C   UNL     1       1.031   4.698 -23.625  0.00  0.00    +0.167 A 
ATOM      7  O   UNL     1      -0.252   4.812 -23.800  0.00  0.00    -0.453 OA
ATOM      8  C   UNL     1      -0.686   3.707 -24.330  0.00  0.00    +0.466 C 
ATOM      9  C   UNL     1       1.919   5.511 -23.137  0.00  0.00    +0.054 A 
ATOM     10  O   UNL     1       0.329   2.908 -24.482  0.00  0.00    -0.453 OA
ATOM     11  C   UNL     1       3.166   5.150 -23.070  0.00  0.00    -0.027 A 
ATOM     12  C   UNL     1       4.054   5.964 -22.582  0.00  0.00    +0.043 C 
ATOM     13  C   UNL     1       3.694   7.141 -22.160  0.00  0.00    +0.041 C 
ATOM     14  C   UNL     1       4.582   7.955 -21.672  0.00  0.00    +0.119 C 
ATOM     15  C   UNL     1       5.829   7.594 -21.605  0.00  0.00    +0.033 C 
ATOM     16  C   UNL     1       6.188   6.417 -22.026  0.00  0.00    +0.025 C 
ATOM     17  C   UNL     1       5.300   5.603 -22.515  0.00  0.00    +0.084 C 
ATOM     18  N   UNL     1       5.659   4.427 -22.936  0.00  0.00    -0.290 N 
ENDROOT
BRANCH  14  19
ATOM     19  O   UNL     1       4.223   9.131 -21.250  0.00  0.00    -0.372 OA
BRANCH  19  20
ATOM     20  C   UNL     1       4.638  10.198 -21.867  0.00  0.00    +0.195 C 
BRANCH  20  21
ATOM     21  C   UNL     1       3.832  11.202 -22.044  0.00  0.00    -0.022 A 
ATOM     22  C   UNL     1       3.482  11.940 -21.033  0.00  0.00    +0.006 A 
ATOM     23  C   UNL     1       2.676  12.945 -21.211  0.00  0.00    +0.000 A 
ATOM     24  C   UNL     1       2.220  13.210 -22.399  0.00  0.00    +0.000 A 
ATOM     25  C   UNL     1       2.570  12.472 -23.410  0.00  0.00    +0.000 A 
ATOM     26  C   UNL     1       3.377  11.467 -23.232  0.00  0.00    +0.006 A 
ENDBRANCH  20  21
ENDBRANCH  19  20
ENDBRANCH  14  19
BRANCH  18  27
ATOM     27  C   UNL     1       6.906   4.065 -22.870  0.00  0.00    +0.143 C 
BRANCH  27  28
ATOM     28  C   UNL     1       7.624   4.001 -23.951  0.00  0.00    -0.030 A 
ATOM     29  C   UNL     1       8.314   2.930 -24.209  0.00  0.00    +0.005 A 
ATOM     30  C   UNL     1       9.033   2.865 -25.292  0.00  0.00    +0.000 A 
ATOM     31  C   UNL     1       9.060   3.871 -26.114  0.00  0.00    +0.000 A 
ATOM     32  C   UNL     1       8.370   4.942 -25.856  0.00  0.00    +0.000 A 
ATOM     33  C   UNL     1       7.652   5.006 -24.774  0.00  0.00    +0.005 A 
ENDBRANCH  27  28
ENDBRANCH  18  27
TORSDOF 5
ENDMDL
MODEL 5
REMARK VINA RESULT:    -7.516      2.409      7.373
REMARK INTER + INTRA:         -10.255
REMARK INTER:                  -9.788
REMARK INTRA:                  -0.467
REMARK UNBOUND:                -0.543
REMARK  Name = ZINC000008382457
REMARK  5 active torsions:
REMARK  status: ('A' for Active; 'I' for Inactive)
REMARK    1  A    between atoms: C_11  and  O_12
REMARK    2  A    between atoms: O_12  and  C_13
REMARK    3  A    between atoms: C_13  and  C_14
REMARK    4  A    between atoms: N_23  and  C_24
REMARK    5  A    between atoms: C_24  and  C_25
REMARK                            x       y       z     vdW  Elec       q    Type
REMARK                         _______ _______ _______ _____ _____    ______ ____
ROOT
ATOM      1  O   UNL     1       0.039   0.328 -22.482  0.00  0.00    -0.270 OA
ATOM      2  C   UNL     1       0.735   1.425 -22.543  0.00  0.00    +0.248 C 
ATOM      3  C   UNL     1       1.963   1.439 -22.117  0.00  0.00    +0.044 A 
ATOM      4  C   UNL     1       2.495   0.357 -21.631  0.00  0.00    +0.063 A 
ATOM      5  C   UNL     1       3.723   0.371 -21.206  0.00  0.00    +0.167 A 
ATOM      6  C   UNL     1       4.420   1.468 -21.266  0.00  0.00    +0.167 A 
ATOM      7  O   UNL     1       5.601   1.221 -20.785  0.00  0.00    -0.453 OA
ATOM      8  C   UNL     1       5.636  -0.029 -20.426  0.00  0.00    +0.466 C 
ATOM      9  C   UNL     1       3.887   2.549 -21.752  0.00  0.00    +0.054 A 
ATOM     10  O   UNL     1       4.475  -0.554 -20.687  0.00  0.00    -0.453 OA
ATOM     11  C   UNL     1       2.659   2.536 -22.178  0.00  0.00    -0.027 A 
ATOM     12  C   UNL     1       2.126   3.618 -22.663  0.00  0.00    +0.043 C 
ATOM     13  C   UNL     1       2.823   4.714 -22.723  0.00  0.00    +0.041 C 
ATOM     14  C   UNL     1       2.291   5.795 -23.209  0.00  0.00    +0.119 C 
ATOM     15  C   UNL     1       1.062   5.782 -23.635  0.00  0.00    +0.033 C 
ATOM     16  C   UNL     1       0.366   4.685 -23.575  0.00  0.00    +0.025 C 
ATOM     17  C   UNL     1       0.898   3.603 -23.089  0.00  0.00    +0.084 C 
ATOM     18  N   UNL     1       0.203   2.507 -23.028  0.00  0.00    -0.290 N 
ENDROOT
BRANCH  14  19
ATOM     19  O   UNL     1       2.986   6.892 -23.270  0.00  0.00    -0.372 OA
BRANCH  19  20
ATOM     20  C   UNL     1       3.909   7.126 -22.384  0.00  0.00    +0.195 C 
BRANCH  20  21
ATOM     21  C   UNL     1       3.985   8.294 -21.818  0.00  0.00    -0.022 A 
ATOM     22  C   UNL     1       3.993   8.388 -20.521  0.00  0.00    +0.006 A 
ATOM     23  C   UNL     1       4.069   9.557 -19.955  0.00  0.00    +0.000 A 
ATOM     24  C   UNL     1       4.137  10.630 -20.687  0.00  0.00    +0.000 A 
ATOM     25  C   UNL     1       4.130  10.535 -21.983  0.00  0.00    +0.000 A 
ATOM     26  C   UNL     1       4.053   9.366 -22.549  0.00  0.00    +0.006 A 
ENDBRANCH  20  21
ENDBRANCH  19  20
ENDBRANCH  14  19
BRANCH  18  27
ATOM     27  C   UNL     1      -1.026   2.492 -23.454  0.00  0.00    +0.143 C 
BRANCH  27  28
ATOM     28  C   UNL     1      -1.994   2.840 -22.659  0.00  0.00    -0.030 A 
ATOM     29  C   UNL     1      -3.188   3.029 -23.136  0.00  0.00    +0.005 A 
ATOM     30  C   UNL     1      -4.158   3.377 -22.341  0.00  0.00    +0.000 A 
ATOM     31  C   UNL     1      -3.931   3.535 -21.071  0.00  0.00    +0.000 A 
ATOM     32  C   UNL     1      -2.737   3.346 -20.594  0.00  0.00    +0.000 A 
ATOM     33  C   UNL     1      -1.768   2.998 -21.389  0.00  0.00    +0.005 A 
ENDBRANCH  27  28
ENDBRANCH  18  27
TORSDOF 5
ENDMDL
MODEL 6
REMARK VINA RESULT:    -6.618      2.559      6.450
REMARK INTER + INTRA:          -9.094
REMARK INTER:                  -9.049
REMARK INTRA:                  -0.046
REMARK UNBOUND:                -0.543
REMARK  Name = ZINC000008382457
REMARK  5 active torsions:
REMARK  status: ('A' for Active; 'I' for Inactive)
REMARK    1  A    between atoms: C_11  and  O_12
REMARK    2  A    between atoms: O_12  and  C_13
REMARK    3  A    between atoms: C_13  and  C_14
REMARK    4  A    between atoms: N_23  and  C_24
REMARK    5  A    between atoms: C_24  and  C_25
REMARK                            x       y       z     vdW  Elec       q    Type
REMARK                         _______ _______ _______ _____ _____    ______ ____
ROOT
ATOM      1  O   UNL     1       1.679   5.842 -22.967  0.00  0.00    -0.270 OA
ATOM      2  C   UNL     1       2.935   5.507 -22.952  0.00  0.00    +0.248 C 
ATOM      3  C   UNL     1       3.825   6.341 -22.502  0.00  0.00    +0.044 A 
ATOM      4  C   UNL     1       3.458   7.510 -22.066  0.00  0.00    +0.063 A 
ATOM      5  C   UNL     1       4.347   8.344 -21.616  0.00  0.00    +0.167 A 
ATOM      6  C   UNL     1       5.604   8.009 -21.602  0.00  0.00    +0.167 A 
ATOM      7  O   UNL     1       6.279   9.006 -21.111  0.00  0.00    -0.453 OA
ATOM      8  C   UNL     1       5.440   9.956 -20.822  0.00  0.00    +0.466 C 
ATOM      9  C   UNL     1       5.970   6.841 -22.037  0.00  0.00    +0.054 A 
ATOM     10  O   UNL     1       4.246   9.548 -21.134  0.00  0.00    -0.453 OA
ATOM     11  C   UNL     1       5.081   6.007 -22.487  0.00  0.00    -0.027 A 
ATOM     12  C   UNL     1       5.447   4.838 -22.923  0.00  0.00    +0.043 C 
ATOM     13  C   UNL     1       6.704   4.504 -22.908  0.00  0.00    +0.041 C 
ATOM     14  C   UNL     1       7.070   3.335 -23.344  0.00  0.00    +0.119 C 
ATOM     15  C   UNL     1       6.181   2.501 -23.795  0.00  0.00    +0.033 C 
ATOM     16  C   UNL     1       4.924   2.835 -23.809  0.00  0.00    +0.025 C 
ATOM     17  C   UNL     1       4.558   4.004 -23.373  0.00  0.00    +0.084 C 
ATOM     18  N   UNL     1       3.302   4.338 -23.388  0.00  0.00    -0.290 N 
ENDROOT
BRANCH  14  19
ATOM     19  O   UNL     1       8.326   3.001 -23.330  0.00  0.00    -0.372 OA
BRANCH  19  20
ATOM     20  C   UNL     1       8.994   2.931 -24.444  0.00  0.00    +0.195 C 
BRANCH  20  21
ATOM     21  C   UNL     1       8.969   3.926 -25.280  0.00  0.00    -0.022 A 
ATOM     22  C   UNL     1       8.852   3.700 -26.555  0.00  0.00    +0.006 A 
ATOM     23  C   UNL     1       8.828   4.697 -27.391  0.00  0.00    +0.000 A 
ATOM     24  C   UNL     1       8.921   5.916 -26.951  0.00  0.00    +0.000 A 
ATOM     25  C   UNL     1       9.038   6.142 -25.676  0.00  0.00    +0.000 A 
ATOM     26  C   UNL     1       9.062   5.146 -24.840  0.00  0.00    +0.006 A 
ENDBRANCH  20  21
ENDBRANCH  19  20
ENDBRANCH  14  19
BRANCH  18  27
ATOM     27  C   UNL     1       2.412   3.504 -23.838  0.00  0.00    +0.143 C 
BRANCH  27  28
ATOM     28  C   UNL     1       1.660   2.845 -23.008  0.00  0.00    -0.030 A 
ATOM     29  C   UNL     1       2.201   2.149 -22.053  0.00  0.00    +0.005 A 
ATOM     30  C   UNL     1       1.448   1.489 -21.223  0.00  0.00    +0.000 A 
ATOM     31  C   UNL     1       0.155   1.526 -21.348  0.00  0.00    +0.000 A 
ATOM     32  C   UNL     1      -0.386   2.223 -22.303  0.00  0.00    +0.000 A 
ATOM     33  C   UNL     1       0.367   2.882 -23.134  0.00  0.00    +0.005 A 
ENDBRANCH  27  28
ENDBRANCH  18  27
TORSDOF 5
ENDMDL
MODEL 7
REMARK VINA RESULT:    -6.054      1.902      5.330
REMARK INTER + INTRA:          -8.366
REMARK INTER:                  -8.222
REMARK INTRA:                  -0.144
REMARK UNBOUND:                -0.543
REMARK  Name = ZINC000008382457
REMARK  5 active torsions:
REMARK  status: ('A' for Active; 'I' for Inactive)
REMARK    1  A    between atoms: C_11  and  O_12
REMARK    2  A    between atoms: O_12  and  C_13
REMARK    3  A    between atoms: C_13  and  C_14
REMARK    4  A    between atoms: N_23  and  C_24
REMARK    5  A    between atoms: C_24  and  C_25
REMARK                            x       y       z     vdW  Elec       q    Type
REMARK                         _______ _______ _______ _____ _____    ______ ____
ROOT
ATOM      1  O   UNL     1       6.061   4.975 -21.847  0.00  0.00    -0.270 OA
ATOM      2  C   UNL     1       4.893   4.478 -22.128  0.00  0.00    +0.248 C 
ATOM      3  C   UNL     1       4.607   3.256 -21.790  0.00  0.00    +0.044 A 
ATOM      4  C   UNL     1       5.490   2.531 -21.170  0.00  0.00    +0.063 A 
ATOM      5  C   UNL     1       5.205   1.309 -20.832  0.00  0.00    +0.167 A 
ATOM      6  C   UNL     1       4.036   0.812 -21.113  0.00  0.00    +0.167 A 
ATOM      7  O   UNL     1       4.004  -0.411 -20.674  0.00  0.00    -0.453 OA
ATOM      8  C   UNL     1       5.151  -0.671 -20.121  0.00  0.00    +0.466 C 
ATOM      9  C   UNL     1       3.154   1.537 -21.732  0.00  0.00    +0.054 A 
ATOM     10  O   UNL     1       5.894   0.392 -20.218  0.00  0.00    -0.453 OA
ATOM     11  C   UNL     1       3.439   2.760 -22.071  0.00  0.00    -0.027 A 
ATOM     12  C   UNL     1       2.557   3.486 -22.691  0.00  0.00    +0.043 C 
ATOM     13  C   UNL     1       1.388   2.988 -22.972  0.00  0.00    +0.041 C 
ATOM     14  C   UNL     1       0.506   3.715 -23.591  0.00  0.00    +0.119 C 
ATOM     15  C   UNL     1       0.791   4.937 -23.930  0.00  0.00    +0.033 C 
ATOM     16  C   UNL     1       1.959   5.434 -23.649  0.00  0.00    +0.025 C 
ATOM     17  C   UNL     1       2.842   4.708 -23.029  0.00  0.00    +0.084 C 
ATOM     18  N   UNL     1       4.010   5.204 -22.748  0.00  0.00    -0.290 N 
ENDROOT
BRANCH  14  19
ATOM     19  O   UNL     1      -0.662   3.218 -23.873  0.00  0.00    -0.372 OA
BRANCH  19  20
ATOM     20  C   UNL     1      -1.251   2.424 -23.029  0.00  0.00    +0.195 C 
BRANCH  20  21
ATOM     21  C   UNL     1      -2.333   2.809 -22.419  0.00  0.00    -0.022 A 
ATOM     22  C   UNL     1      -3.437   2.959 -23.088  0.00  0.00    +0.006 A 
ATOM     23  C   UNL     1      -4.519   3.345 -22.478  0.00  0.00    +0.000 A 
ATOM     24  C   UNL     1      -4.495   3.580 -21.200  0.00  0.00    +0.000 A 
ATOM     25  C   UNL     1      -3.391   3.430 -20.531  0.00  0.00    +0.000 A 
ATOM     26  C   UNL     1      -2.309   3.044 -21.141  0.00  0.00    +0.006 A 
ENDBRANCH  20  21
ENDBRANCH  19  20
ENDBRANCH  14  19
BRANCH  18  27
ATOM     27  C   UNL     1       4.296   6.426 -23.087  0.00  0.00    +0.143 C 
BRANCH  27  28
ATOM     28  C   UNL     1       4.671   7.281 -22.182  0.00  0.00    -0.030 A 
ATOM     29  C   UNL     1       3.825   7.686 -21.282  0.00  0.00    +0.005 A 
ATOM     30  C   UNL     1       4.200   8.542 -20.377  0.00  0.00    +0.000 A 
ATOM     31  C   UNL     1       5.419   8.991 -20.373  0.00  0.00    +0.000 A 
ATOM     32  C   UNL     1       6.265   8.586 -21.273  0.00  0.00    +0.000 A 
ATOM     33  C   UNL     1       5.890   7.730 -22.178  0.00  0.00    +0.005 A 
ENDBRANCH  27  28
ENDBRANCH  18  27
TORSDOF 5
ENDMDL
