MODEL 1
REMARK VINA RESULT:   -10.967      0.000      0.000
REMARK INTER + INTRA:         -11.608
REMARK INTER:                 -11.608
REMARK INTRA:                   0.000
REMARK UNBOUND:                 0.000
REMARK  Name = ZINC000003830763
REMARK  3 active torsions:
REMARK  status: ('A' for Active; 'I' for Inactive)
REMARK    1  A    between atoms: C_1  and  C_2
REMARK    2  A    between atoms: C_9  and  O_10
REMARK    3  A    between atoms: C_19  and  O_20
REMARK                            x       y       z     vdW  Elec       q    Type
REMARK                         _______ _______ _______ _____ _____    ______ ____
ROOT
ATOM      1  C   UNL     1      -4.531   3.836 -23.904  0.00  0.00    +0.014 C 
ATOM      2  C   UNL     1      -3.686   3.276 -23.090  0.00  0.00    -0.003 C 
ATOM      3  C   UNL     1      -3.172   3.613 -24.236  0.00  0.00    +0.010 C 
ATOM      4  C   UNL     1      -1.917   3.380 -24.479  0.00  0.00    +0.009 C 
ATOM      5  C   UNL     1      -1.175   2.811 -23.576  0.00  0.00    +0.023 C 
ATOM      6  C   UNL     1       0.081   2.578 -23.818  0.00  0.00    -0.041 A 
ATOM      7  C   UNL     1       0.595   2.914 -24.963  0.00  0.00    +0.008 A 
ATOM      8  C   UNL     1       1.851   2.682 -25.207  0.00  0.00    +0.046 A 
ATOM      9  C   UNL     1       2.593   2.112 -24.303  0.00  0.00    +0.117 A 
ATOM     10  C   UNL     1       2.079   1.775 -23.157  0.00  0.00    +0.049 A 
ATOM     11  C   UNL     1       0.823   2.008 -22.915  0.00  0.00    -0.040 A 
ATOM     12  C   UNL     1       0.308   1.672 -21.769  0.00  0.00    +0.036 C 
ATOM     13  C   UNL     1      -0.947   1.905 -21.527  0.00  0.00    +0.009 C 
ATOM     14  C   UNL     1      -1.689   2.474 -22.429  0.00  0.00    +0.000 C 
ATOM     15  C   UNL     1      -4.887   3.395 -22.607  0.00  0.00    +0.121 C 
ATOM     16  C   UNL     1      -4.888   2.900 -21.405  0.00  0.00    +0.032 C 
ATOM     17  C   UNL     1      -3.686   2.474 -21.146  0.00  0.00    +0.007 C 
ATOM     18  C   UNL     1      -2.944   2.707 -22.187  0.00  0.00    +0.001 C 
ENDROOT
BRANCH   9  19
ATOM     19  O   UNL     1       3.848   1.879 -24.546  0.00  0.00    -0.507 OA
ATOM     20  H   UNL     1       4.474   1.911 -23.850  0.00  0.00    +0.292 HD
ENDBRANCH   9  19
BRANCH  15  21
ATOM     21  O   UNL     1      -5.908   3.918 -23.218  0.00  0.00    -0.391 OA
ATOM     22  H   UNL     1      -6.644   3.286 -23.217  0.00  0.00    +0.210 HD
ENDBRANCH  15  21
TORSDOF 2
ENDMDL
MODEL 2
REMARK VINA RESULT:   -10.828      0.982      2.469
REMARK INTER + INTRA:         -11.461
REMARK INTER:                 -11.461
REMARK INTRA:                   0.000
REMARK UNBOUND:                 0.000
REMARK  Name = ZINC000003830763
REMARK  3 active torsions:
REMARK  status: ('A' for Active; 'I' for Inactive)
REMARK    1  A    between atoms: C_1  and  C_2
REMARK    2  A    between atoms: C_9  and  O_10
REMARK    3  A    between atoms: C_19  and  O_20
REMARK                            x       y       z     vdW  Elec       q    Type
REMARK                         _______ _______ _______ _____ _____    ______ ____
ROOT
ATOM      1  C   UNL     1      -4.916   3.094 -21.927  0.00  0.00    +0.014 C 
ATOM      2  C   UNL     1      -3.996   3.288 -22.824  0.00  0.00    -0.003 C 
ATOM      3  C   UNL     1      -3.565   2.710 -21.742  0.00  0.00    +0.010 C 
ATOM      4  C   UNL     1      -2.312   2.382 -21.635  0.00  0.00    +0.009 C 
ATOM      5  C   UNL     1      -1.490   2.632 -22.610  0.00  0.00    +0.023 C 
ATOM      6  C   UNL     1      -0.236   2.305 -22.504  0.00  0.00    -0.041 A 
ATOM      7  C   UNL     1       0.195   1.727 -21.422  0.00  0.00    +0.008 A 
ATOM      8  C   UNL     1       1.448   1.399 -21.314  0.00  0.00    +0.046 A 
ATOM      9  C   UNL     1       2.272   1.649 -22.290  0.00  0.00    +0.117 A 
ATOM     10  C   UNL     1       1.840   2.227 -23.372  0.00  0.00    +0.049 A 
ATOM     11  C   UNL     1       0.587   2.555 -23.479  0.00  0.00    -0.040 A 
ATOM     12  C   UNL     1       0.155   3.132 -24.561  0.00  0.00    +0.036 C 
ATOM     13  C   UNL     1      -1.098   3.460 -24.667  0.00  0.00    +0.009 C 
ATOM     14  C   UNL     1      -1.920   3.210 -23.693  0.00  0.00    +0.000 C 
ATOM     15  C   UNL     1      -5.175   3.708 -23.175  0.00  0.00    +0.121 C 
ATOM     16  C   UNL     1      -5.082   4.218 -24.368  0.00  0.00    +0.032 C 
ATOM     17  C   UNL     1      -3.844   4.112 -24.754  0.00  0.00    +0.007 C 
ATOM     18  C   UNL     1      -3.174   3.538 -23.799  0.00  0.00    +0.001 C 
ENDROOT
BRANCH   9  19
ATOM     19  O   UNL     1       3.524   1.321 -22.183  0.00  0.00    -0.507 OA
ATOM     20  H   UNL     1       4.185   1.985 -22.189  0.00  0.00    +0.292 HD
ENDBRANCH   9  19
BRANCH  15  21
ATOM     21  O   UNL     1      -6.258   3.632 -22.460  0.00  0.00    -0.391 OA
ATOM     22  H   UNL     1      -6.096   3.069 -21.687  0.00  0.00    +0.210 HD
ENDBRANCH  15  21
TORSDOF 2
ENDMDL
MODEL 3
REMARK VINA RESULT:   -10.490      0.865      6.155
REMARK INTER + INTRA:         -11.104
REMARK INTER:                 -11.104
REMARK INTRA:                   0.000
REMARK UNBOUND:                 0.000
REMARK  Name = ZINC000003830763
REMARK  3 active torsions:
REMARK  status: ('A' for Active; 'I' for Inactive)
REMARK    1  A    between atoms: C_1  and  C_2
REMARK    2  A    between atoms: C_9  and  O_10
REMARK    3  A    between atoms: C_19  and  O_20
REMARK                            x       y       z     vdW  Elec       q    Type
REMARK                         _______ _______ _______ _____ _____    ______ ____
ROOT
ATOM      1  C   UNL     1       1.992   1.221 -21.752  0.00  0.00    +0.014 C 
ATOM      2  C   UNL     1       1.293   1.850 -22.649  0.00  0.00    -0.003 C 
ATOM      3  C   UNL     1       0.611   1.500 -21.598  0.00  0.00    +0.010 C 
ATOM      4  C   UNL     1      -0.654   1.786 -21.518  0.00  0.00    +0.009 C 
ATOM      5  C   UNL     1      -1.239   2.422 -22.488  0.00  0.00    +0.023 C 
ATOM      6  C   UNL     1      -2.504   2.709 -22.409  0.00  0.00    -0.041 A 
ATOM      7  C   UNL     1      -3.184   2.359 -21.358  0.00  0.00    +0.008 A 
ATOM      8  C   UNL     1      -4.450   2.645 -21.277  0.00  0.00    +0.046 A 
ATOM      9  C   UNL     1      -5.036   3.281 -22.249  0.00  0.00    +0.117 A 
ATOM     10  C   UNL     1      -4.355   3.631 -23.300  0.00  0.00    +0.049 A 
ATOM     11  C   UNL     1      -3.089   3.345 -23.380  0.00  0.00    -0.040 A 
ATOM     12  C   UNL     1      -2.408   3.695 -24.431  0.00  0.00    +0.036 C 
ATOM     13  C   UNL     1      -1.143   3.408 -24.510  0.00  0.00    +0.009 C 
ATOM     14  C   UNL     1      -0.558   2.772 -23.540  0.00  0.00    +0.000 C 
ATOM     15  C   UNL     1       2.542   1.688 -22.969  0.00  0.00    +0.121 C 
ATOM     16  C   UNL     1       2.729   2.224 -24.139  0.00  0.00    +0.032 C 
ATOM     17  C   UNL     1       1.595   2.718 -24.541  0.00  0.00    +0.007 C 
ATOM     18  C   UNL     1       0.707   2.486 -23.620  0.00  0.00    +0.001 C 
ENDROOT
BRANCH   9  19
ATOM     19  O   UNL     1      -6.301   3.567 -22.169  0.00  0.00    -0.507 OA
ATOM     20  H   UNL     1      -6.795   3.302 -21.419  0.00  0.00    +0.292 HD
ENDBRANCH   9  19
BRANCH  15  21
ATOM     21  O   UNL     1       3.445   1.094 -22.248  0.00  0.00    -0.391 OA
ATOM     22  H   UNL     1       3.304   1.308 -21.312  0.00  0.00    +0.210 HD
ENDBRANCH  15  21
TORSDOF 2
ENDMDL
MODEL 4
REMARK VINA RESULT:   -10.053      0.793      5.758
REMARK INTER + INTRA:         -10.641
REMARK INTER:                 -10.641
REMARK INTRA:                   0.000
REMARK UNBOUND:                 0.000
REMARK  Name = ZINC000003830763
REMARK  3 active torsions:
REMARK  status: ('A' for Active; 'I' for Inactive)
REMARK    1  A    between atoms: C_1  and  C_2
REMARK    2  A    between atoms: C_9  and  O_10
REMARK    3  A    between atoms: C_19  and  O_20
REMARK                            x       y       z     vdW  Elec       q    Type
REMARK                         _______ _______ _______ _____ _____    ______ ____
ROOT
ATOM      1  C   UNL     1       2.782   2.277 -24.620  0.00  0.00    +0.014 C 
ATOM      2  C   UNL     1       1.958   2.089 -23.632  0.00  0.00    -0.003 C 
ATOM      3  C   UNL     1       1.418   2.658 -24.669  0.00  0.00    +0.010 C 
ATOM      4  C   UNL     1       0.160   2.983 -24.652  0.00  0.00    +0.009 C 
ATOM      5  C   UNL     1      -0.559   2.740 -23.597  0.00  0.00    +0.023 C 
ATOM      6  C   UNL     1      -1.818   3.065 -23.579  0.00  0.00    -0.041 A 
ATOM      7  C   UNL     1      -2.357   3.634 -24.616  0.00  0.00    +0.008 A 
ATOM      8  C   UNL     1      -3.615   3.959 -24.599  0.00  0.00    +0.046 A 
ATOM      9  C   UNL     1      -4.335   3.716 -23.543  0.00  0.00    +0.117 A 
ATOM     10  C   UNL     1      -3.796   3.147 -22.506  0.00  0.00    +0.049 A 
ATOM     11  C   UNL     1      -2.537   2.822 -22.524  0.00  0.00    -0.040 A 
ATOM     12  C   UNL     1      -1.997   2.253 -21.487  0.00  0.00    +0.036 C 
ATOM     13  C   UNL     1      -0.739   1.928 -21.505  0.00  0.00    +0.009 C 
ATOM     14  C   UNL     1      -0.020   2.171 -22.559  0.00  0.00    +0.000 C 
ATOM     15  C   UNL     1       3.167   1.674 -23.399  0.00  0.00    +0.121 C 
ATOM     16  C   UNL     1       3.196   1.173 -22.199  0.00  0.00    +0.032 C 
ATOM     17  C   UNL     1       2.003   1.280 -21.691  0.00  0.00    +0.007 C 
ATOM     18  C   UNL     1       1.239   1.846 -22.577  0.00  0.00    +0.001 C 
ENDROOT
BRANCH   9  19
ATOM     19  O   UNL     1      -5.593   4.041 -23.526  0.00  0.00    -0.507 OA
ATOM     20  H   UNL     1      -5.949   4.573 -24.209  0.00  0.00    +0.292 HD
ENDBRANCH   9  19
BRANCH  15  21
ATOM     21  O   UNL     1       4.172   1.746 -24.220  0.00  0.00    -0.391 OA
ATOM     22  H   UNL     1       4.311   0.881 -24.638  0.00  0.00    +0.210 HD
ENDBRANCH  15  21
TORSDOF 2
ENDMDL
MODEL 5
REMARK VINA RESULT:    -9.911      1.677      5.708
REMARK INTER + INTRA:         -10.490
REMARK INTER:                 -10.490
REMARK INTRA:                   0.000
REMARK UNBOUND:                 0.000
REMARK  Name = ZINC000003830763
REMARK  3 active torsions:
REMARK  status: ('A' for Active; 'I' for Inactive)
REMARK    1  A    between atoms: C_1  and  C_2
REMARK    2  A    between atoms: C_9  and  O_10
REMARK    3  A    between atoms: C_19  and  O_20
REMARK                            x       y       z     vdW  Elec       q    Type
REMARK                         _______ _______ _______ _____ _____    ______ ____
ROOT
ATOM      1  C   UNL     1       0.914   1.441 -20.338  0.00  0.00    +0.014 C 
ATOM      2  C   UNL     1       0.978   1.886 -21.558  0.00  0.00    -0.003 C 
ATOM      3  C   UNL     1      -0.224   1.870 -21.064  0.00  0.00    +0.010 C 
ATOM      4  C   UNL     1      -1.228   2.278 -21.782  0.00  0.00    +0.009 C 
ATOM      5  C   UNL     1      -1.029   2.702 -22.995  0.00  0.00    +0.023 C 
ATOM      6  C   UNL     1      -2.033   3.110 -23.714  0.00  0.00    -0.041 A 
ATOM      7  C   UNL     1      -3.234   3.094 -23.220  0.00  0.00    +0.008 A 
ATOM      8  C   UNL     1      -4.239   3.502 -23.938  0.00  0.00    +0.046 A 
ATOM      9  C   UNL     1      -4.040   3.926 -25.151  0.00  0.00    +0.117 A 
ATOM     10  C   UNL     1      -2.837   3.941 -25.645  0.00  0.00    +0.049 A 
ATOM     11  C   UNL     1      -1.834   3.533 -24.927  0.00  0.00    -0.040 A 
ATOM     12  C   UNL     1      -0.631   3.548 -25.421  0.00  0.00    +0.036 C 
ATOM     13  C   UNL     1       0.372   3.140 -24.702  0.00  0.00    +0.009 C 
ATOM     14  C   UNL     1       0.174   2.717 -23.490  0.00  0.00    +0.000 C 
ATOM     15  C   UNL     1       2.128   1.539 -21.060  0.00  0.00    +0.121 C 
ATOM     16  C   UNL     1       3.037   1.749 -21.965  0.00  0.00    +0.032 C 
ATOM     17  C   UNL     1       2.449   2.225 -23.023  0.00  0.00    +0.007 C 
ATOM     18  C   UNL     1       1.177   2.309 -22.771  0.00  0.00    +0.001 C 
ENDROOT
BRANCH   9  19
ATOM     19  O   UNL     1      -5.043   4.334 -25.869  0.00  0.00    -0.507 OA
ATOM     20  H   UNL     1      -5.754   3.753 -26.054  0.00  0.00    +0.292 HD
ENDBRANCH   9  19
BRANCH  15  21
ATOM     21  O   UNL     1       2.333   1.066 -19.866  0.00  0.00    -0.391 OA
ATOM     22  H   UNL     1       1.506   0.696 -19.519  0.00  0.00    +0.210 HD
ENDBRANCH  15  21
TORSDOF 2
ENDMDL
MODEL 6
REMARK VINA RESULT:    -9.847      1.128      2.763
REMARK INTER + INTRA:         -10.423
REMARK INTER:                 -10.423
REMARK INTRA:                   0.000
REMARK UNBOUND:                 0.000
REMARK  Name = ZINC000003830763
REMARK  3 active torsions:
REMARK  status: ('A' for Active; 'I' for Inactive)
REMARK    1  A    between atoms: C_1  and  C_2
REMARK    2  A    between atoms: C_9  and  O_10
REMARK    3  A    between atoms: C_19  and  O_20
REMARK                            x       y       z     vdW  Elec       q    Type
REMARK                         _______ _______ _______ _____ _____    ______ ____
ROOT
ATOM      1  C   UNL     1      -3.121   2.659 -21.711  0.00  0.00    +0.014 C 
ATOM      2  C   UNL     1      -2.286   2.899 -22.679  0.00  0.00    -0.003 C 
ATOM      3  C   UNL     1      -1.767   2.240 -21.684  0.00  0.00    +0.010 C 
ATOM      4  C   UNL     1      -0.518   1.885 -21.721  0.00  0.00    +0.009 C 
ATOM      5  C   UNL     1       0.214   2.188 -22.752  0.00  0.00    +0.023 C 
ATOM      6  C   UNL     1       1.464   1.833 -22.789  0.00  0.00    -0.041 A 
ATOM      7  C   UNL     1       1.982   1.175 -21.796  0.00  0.00    +0.008 A 
ATOM      8  C   UNL     1       3.232   0.819 -21.832  0.00  0.00    +0.046 A 
ATOM      9  C   UNL     1       3.964   1.122 -22.864  0.00  0.00    +0.117 A 
ATOM     10  C   UNL     1       3.445   1.780 -23.858  0.00  0.00    +0.049 A 
ATOM     11  C   UNL     1       2.195   2.135 -23.820  0.00  0.00    -0.040 A 
ATOM     12  C   UNL     1       1.676   2.794 -24.815  0.00  0.00    +0.036 C 
ATOM     13  C   UNL     1       0.426   3.149 -24.777  0.00  0.00    +0.009 C 
ATOM     14  C   UNL     1      -0.305   2.846 -23.747  0.00  0.00    +0.000 C 
ATOM     15  C   UNL     1      -3.483   3.361 -22.885  0.00  0.00    +0.121 C 
ATOM     16  C   UNL     1      -3.492   3.950 -24.044  0.00  0.00    +0.032 C 
ATOM     17  C   UNL     1      -2.299   3.851 -24.554  0.00  0.00    +0.007 C 
ATOM     18  C   UNL     1      -1.555   3.201 -23.710  0.00  0.00    +0.001 C 
ENDROOT
BRANCH   9  19
ATOM     19  O   UNL     1       5.214   0.767 -22.900  0.00  0.00    -0.507 OA
ATOM     20  H   UNL     1       5.573   0.395 -23.681  0.00  0.00    +0.292 HD
ENDBRANCH   9  19
BRANCH  15  21
ATOM     21  O   UNL     1      -4.494   3.254 -22.076  0.00  0.00    -0.391 OA
ATOM     22  H   UNL     1      -5.179   3.895 -22.326  0.00  0.00    +0.210 HD
ENDBRANCH  15  21
TORSDOF 2
ENDMDL
MODEL 7
REMARK VINA RESULT:    -9.576      1.694      6.549
REMARK INTER + INTRA:         -10.136
REMARK INTER:                 -10.136
REMARK INTRA:                   0.000
REMARK UNBOUND:                 0.000
REMARK  Name = ZINC000003830763
REMARK  3 active torsions:
REMARK  status: ('A' for Active; 'I' for Inactive)
REMARK    1  A    between atoms: C_1  and  C_2
REMARK    2  A    between atoms: C_9  and  O_10
REMARK    3  A    between atoms: C_19  and  O_20
REMARK                            x       y       z     vdW  Elec       q    Type
REMARK                         _______ _______ _______ _____ _____    ______ ____
ROOT
ATOM      1  C   UNL     1       3.814   0.825 -22.110  0.00  0.00    +0.014 C 
ATOM      2  C   UNL     1       3.225   1.887 -22.573  0.00  0.00    -0.003 C 
ATOM      3  C   UNL     1       2.425   1.063 -21.964  0.00  0.00    +0.010 C 
ATOM      4  C   UNL     1       1.159   1.339 -21.864  0.00  0.00    +0.009 C 
ATOM      5  C   UNL     1       0.692   2.441 -22.373  0.00  0.00    +0.023 C 
ATOM      6  C   UNL     1      -0.574   2.718 -22.273  0.00  0.00    -0.041 A 
ATOM      7  C   UNL     1      -1.373   1.894 -21.664  0.00  0.00    +0.008 A 
ATOM      8  C   UNL     1      -2.640   2.170 -21.563  0.00  0.00    +0.046 A 
ATOM      9  C   UNL     1      -3.107   3.272 -22.073  0.00  0.00    +0.117 A 
ATOM     10  C   UNL     1      -2.306   4.097 -22.682  0.00  0.00    +0.049 A 
ATOM     11  C   UNL     1      -1.040   3.819 -22.782  0.00  0.00    -0.040 A 
ATOM     12  C   UNL     1      -0.240   4.644 -23.391  0.00  0.00    +0.036 C 
ATOM     13  C   UNL     1       1.026   4.366 -23.490  0.00  0.00    +0.009 C 
ATOM     14  C   UNL     1       1.492   3.266 -22.982  0.00  0.00    +0.000 C 
ATOM     15  C   UNL     1       4.503   1.847 -22.805  0.00  0.00    +0.121 C 
ATOM     16  C   UNL     1       4.827   2.924 -23.457  0.00  0.00    +0.032 C 
ATOM     17  C   UNL     1       3.748   3.630 -23.629  0.00  0.00    +0.007 C 
ATOM     18  C   UNL     1       2.758   2.989 -23.082  0.00  0.00    +0.001 C 
ENDROOT
BRANCH   9  19
ATOM     19  O   UNL     1      -4.372   3.549 -21.972  0.00  0.00    -0.507 OA
ATOM     20  H   UNL     1      -4.799   4.041 -22.645  0.00  0.00    +0.292 HD
ENDBRANCH   9  19
BRANCH  15  21
ATOM     21  O   UNL     1       5.316   0.897 -22.448  0.00  0.00    -0.391 OA
ATOM     22  H   UNL     1       6.226   1.150 -22.669  0.00  0.00    +0.210 HD
ENDBRANCH  15  21
TORSDOF 2
ENDMDL
MODEL 8
REMARK VINA RESULT:    -9.368      2.257      3.914
REMARK INTER + INTRA:          -9.916
REMARK INTER:                  -9.916
REMARK INTRA:                   0.000
REMARK UNBOUND:                 0.000
REMARK  Name = ZINC000003830763
REMARK  3 active torsions:
REMARK  status: ('A' for Active; 'I' for Inactive)
REMARK    1  A    between atoms: C_1  and  C_2
REMARK    2  A    between atoms: C_9  and  O_10
REMARK    3  A    between atoms: C_19  and  O_20
REMARK                            x       y       z     vdW  Elec       q    Type
REMARK                         _______ _______ _______ _____ _____    ______ ____
ROOT
ATOM      1  C   UNL     1      -1.350   1.692 -21.559  0.00  0.00    +0.014 C 
ATOM      2  C   UNL     1      -0.586   2.573 -22.133  0.00  0.00    -0.003 C 
ATOM      3  C   UNL     1       0.058   1.556 -21.641  0.00  0.00    +0.010 C 
ATOM      4  C   UNL     1       1.351   1.491 -21.750  0.00  0.00    +0.009 C 
ATOM      5  C   UNL     1       2.002   2.443 -22.351  0.00  0.00    +0.023 C 
ATOM      6  C   UNL     1       3.296   2.378 -22.459  0.00  0.00    -0.041 A 
ATOM      7  C   UNL     1       3.939   1.362 -21.967  0.00  0.00    +0.008 A 
ATOM      8  C   UNL     1       5.233   1.297 -22.076  0.00  0.00    +0.046 A 
ATOM      9  C   UNL     1       5.884   2.249 -22.677  0.00  0.00    +0.117 A 
ATOM     10  C   UNL     1       5.240   3.266 -23.169  0.00  0.00    +0.049 A 
ATOM     11  C   UNL     1       3.946   3.330 -23.060  0.00  0.00    -0.040 A 
ATOM     12  C   UNL     1       3.302   4.347 -23.553  0.00  0.00    +0.036 C 
ATOM     13  C   UNL     1       2.008   4.411 -23.444  0.00  0.00    +0.009 C 
ATOM     14  C   UNL     1       1.358   3.460 -22.843  0.00  0.00    +0.000 C 
ATOM     15  C   UNL     1      -1.851   2.872 -22.158  0.00  0.00    +0.121 C 
ATOM     16  C   UNL     1      -1.982   4.009 -22.775  0.00  0.00    +0.032 C 
ATOM     17  C   UNL     1      -0.798   4.412 -23.131  0.00  0.00    +0.007 C 
ATOM     18  C   UNL     1       0.064   3.525 -22.734  0.00  0.00    +0.001 C 
ENDROOT
BRANCH   9  19
ATOM     19  O   UNL     1       7.177   2.184 -22.785  0.00  0.00    -0.507 OA
ATOM     20  H   UNL     1       7.580   1.416 -23.139  0.00  0.00    +0.292 HD
ENDBRANCH   9  19
BRANCH  15  21
ATOM     21  O   UNL     1      -2.815   2.160 -21.655  0.00  0.00    -0.391 OA
ATOM     22  H   UNL     1      -2.446   1.501 -21.046  0.00  0.00    +0.210 HD
ENDBRANCH  15  21
TORSDOF 2
ENDMDL
MODEL 9
REMARK VINA RESULT:    -8.941      2.004      6.209
REMARK INTER + INTRA:          -9.464
REMARK INTER:                  -9.464
REMARK INTRA:                   0.000
REMARK UNBOUND:                 0.000
REMARK  Name = ZINC000003830763
REMARK  3 active torsions:
REMARK  status: ('A' for Active; 'I' for Inactive)
REMARK    1  A    between atoms: C_1  and  C_2
REMARK    2  A    between atoms: C_9  and  O_10
REMARK    3  A    between atoms: C_19  and  O_20
REMARK                            x       y       z     vdW  Elec       q    Type
REMARK                         _______ _______ _______ _____ _____    ______ ____
ROOT
ATOM      1  C   UNL     1       4.128   4.655 -23.299  0.00  0.00    +0.014 C 
ATOM      2  C   UNL     1       3.428   3.690 -22.780  0.00  0.00    -0.003 C 
ATOM      3  C   UNL     1       2.714   4.601 -23.372  0.00  0.00    +0.010 C 
ATOM      4  C   UNL     1       1.419   4.493 -23.405  0.00  0.00    +0.009 C 
ATOM      5  C   UNL     1       0.838   3.474 -22.846  0.00  0.00    +0.023 C 
ATOM      6  C   UNL     1      -0.457   3.365 -22.878  0.00  0.00    -0.041 A 
ATOM      7  C   UNL     1      -1.171   4.276 -23.469  0.00  0.00    +0.008 A 
ATOM      8  C   UNL     1      -2.466   4.169 -23.502  0.00  0.00    +0.046 A 
ATOM      9  C   UNL     1      -3.048   3.149 -22.942  0.00  0.00    +0.117 A 
ATOM     10  C   UNL     1      -2.334   2.238 -22.350  0.00  0.00    +0.049 A 
ATOM     11  C   UNL     1      -1.039   2.346 -22.318  0.00  0.00    -0.040 A 
ATOM     12  C   UNL     1      -0.324   1.435 -21.726  0.00  0.00    +0.036 C 
ATOM     13  C   UNL     1       0.971   1.543 -21.694  0.00  0.00    +0.009 C 
ATOM     14  C   UNL     1       1.552   2.562 -22.253  0.00  0.00    +0.000 C 
ATOM     15  C   UNL     1       4.711   3.564 -22.611  0.00  0.00    +0.121 C 
ATOM     16  C   UNL     1       4.922   2.467 -21.946  0.00  0.00    +0.032 C 
ATOM     17  C   UNL     1       3.770   1.914 -21.705  0.00  0.00    +0.007 C 
ATOM     18  C   UNL     1       2.847   2.670 -22.221  0.00  0.00    +0.001 C 
ENDROOT
BRANCH   9  19
ATOM     19  O   UNL     1      -4.342   3.041 -22.975  0.00  0.00    -0.507 OA
ATOM     20  H   UNL     1      -4.867   3.774 -23.227  0.00  0.00    +0.292 HD
ENDBRANCH   9  19
BRANCH  15  21
ATOM     21  O   UNL     1       5.622   4.390 -23.031  0.00  0.00    -0.391 OA
ATOM     22  H   UNL     1       5.847   5.012 -22.322  0.00  0.00    +0.210 HD
ENDBRANCH  15  21
TORSDOF 2
ENDMDL
