MODEL 1
REMARK VINA RESULT:    -8.857      0.000      0.000
REMARK INTER + INTRA:         -11.260
REMARK INTER:                 -11.146
REMARK INTRA:                  -0.114
REMARK UNBOUND:                -0.073
REMARK  Name = COc1c(O)cc2c(c1O)[C@@H]1O[C@H](CO)[C@@H](O)[C@@H](O)[C@@H]1OC2=O     ZINC000105514848
REMARK  8 active torsions:
REMARK  status: ('A' for Active; 'I' for Inactive)
REMARK    1  A    between atoms: C_1  and  O_2
REMARK    2  A    between atoms: O_2  and  C_3
REMARK    3  A    between atoms: C_4  and  O_5
REMARK    4  A    between atoms: C_9  and  O_10
REMARK    5  A    between atoms: C_13  and  C_14
REMARK    6  A    between atoms: C_14  and  O_15
REMARK    7  A    between atoms: C_16  and  O_17
REMARK    8  A    between atoms: C_18  and  O_19
REMARK                            x       y       z     vdW  Elec       q    Type
REMARK                         _______ _______ _______ _____ _____    ______ ____
ROOT
ATOM      1  C   UNL     1      -2.733   3.759 -25.181  0.00  0.00    +0.203 A 
ATOM      2  C   UNL     1      -3.663   3.930 -24.289  0.00  0.00    +0.163 A 
ATOM      3  C   UNL     1      -3.446   3.595 -23.052  0.00  0.00    +0.064 A 
ATOM      4  C   UNL     1      -2.298   3.090 -22.708  0.00  0.00    +0.072 A 
ATOM      5  C   UNL     1      -1.369   2.920 -23.600  0.00  0.00    +0.044 A 
ATOM      6  C   UNL     1      -0.221   2.415 -23.255  0.00  0.00    +0.196 C 
ATOM      7  O   UNL     1       0.708   2.244 -24.147  0.00  0.00    -0.360 OA
ATOM      8  C   UNL     1       1.856   1.739 -23.802  0.00  0.00    +0.175 C 
ATOM      9  C   UNL     1       2.073   1.404 -22.565  0.00  0.00    +0.178 C 
ATOM     10  C   UNL     1       1.143   1.575 -21.673  0.00  0.00    +0.189 C 
ATOM     11  C   UNL     1      -0.004   2.080 -22.018  0.00  0.00    +0.241 C 
ATOM     12  O   UNL     1      -0.934   2.251 -21.125  0.00  0.00    -0.452 OA
ATOM     13  C   UNL     1      -2.081   2.756 -21.470  0.00  0.00    +0.340 C 
ATOM     14  O   UNL     1      -3.011   2.926 -20.578  0.00  0.00    -0.245 OA
ATOM     15  C   UNL     1      -1.586   3.254 -24.837  0.00  0.00    +0.169 A 
ENDROOT
BRANCH   1  17
ATOM     16  C   UNL     1      -3.557   3.268 -27.219  0.00  0.00    +0.277 C 
ATOM     17  O   UNL     1      -2.950   4.094 -26.419  0.00  0.00    -0.489 OA
ENDBRANCH   1  17
BRANCH  10  18
ATOM     18  O   UNL     1       1.360   1.240 -20.435  0.00  0.00    -0.385 OA
ATOM     19  H   UNL     1       1.229   0.285 -20.332  0.00  0.00    +0.210 HD
ENDBRANCH  10  18
BRANCH   9  20
ATOM     20  O   UNL     1       3.220   0.899 -22.221  0.00  0.00    -0.386 OA
ATOM     21  H   UNL     1       3.710   0.637 -23.015  0.00  0.00    +0.210 HD
ENDBRANCH   9  20
BRANCH  15  22
ATOM     22  O   UNL     1      -0.656   3.084 -25.730  0.00  0.00    -0.503 OA
ATOM     23  H   UNL     1       0.105   2.577 -25.523  0.00  0.00    +0.292 HD
ENDBRANCH  15  22
BRANCH   2  24
ATOM     24  O   UNL     1      -4.810   4.435 -24.634  0.00  0.00    -0.503 OA
ATOM     25  H   UNL     1      -5.119   4.339 -25.514  0.00  0.00    +0.292 HD
ENDBRANCH   2  24
BRANCH   8  26
ATOM     26  C   UNL     1       2.785   1.569 -24.694  0.00  0.00    +0.190 C 
BRANCH  26  27
ATOM     27  O   UNL     1       3.059   0.373 -25.128  0.00  0.00    -0.392 OA
ATOM     28  H   UNL     1       3.420   0.431 -26.027  0.00  0.00    +0.210 HD
ENDBRANCH  26  27
ENDBRANCH   8  26
TORSDOF 7
ENDMDL
MODEL 2
REMARK VINA RESULT:    -8.590      1.285      5.432
REMARK INTER + INTRA:         -10.923
REMARK INTER:                 -10.856
REMARK INTRA:                  -0.067
REMARK UNBOUND:                -0.073
REMARK  Name = COc1c(O)cc2c(c1O)[C@@H]1O[C@H](CO)[C@@H](O)[C@@H](O)[C@@H]1OC2=O     ZINC000105514848
REMARK  8 active torsions:
REMARK  status: ('A' for Active; 'I' for Inactive)
REMARK    1  A    between atoms: C_1  and  O_2
REMARK    2  A    between atoms: O_2  and  C_3
REMARK    3  A    between atoms: C_4  and  O_5
REMARK    4  A    between atoms: C_9  and  O_10
REMARK    5  A    between atoms: C_13  and  C_14
REMARK    6  A    between atoms: C_14  and  O_15
REMARK    7  A    between atoms: C_16  and  O_17
REMARK    8  A    between atoms: C_18  and  O_19
REMARK                            x       y       z     vdW  Elec       q    Type
REMARK                         _______ _______ _______ _____ _____    ______ ____
ROOT
ATOM      1  C   UNL     1       0.598   1.860 -22.768  0.00  0.00    +0.203 A 
ATOM      2  C   UNL     1       0.407   1.745 -21.488  0.00  0.00    +0.163 A 
ATOM      3  C   UNL     1      -0.742   2.063 -20.971  0.00  0.00    +0.064 A 
ATOM      4  C   UNL     1      -1.701   2.496 -21.735  0.00  0.00    +0.072 A 
ATOM      5  C   UNL     1      -1.510   2.611 -23.016  0.00  0.00    +0.044 A 
ATOM      6  C   UNL     1      -2.469   3.044 -23.780  0.00  0.00    +0.196 C 
ATOM      7  O   UNL     1      -2.278   3.159 -25.060  0.00  0.00    -0.360 OA
ATOM      8  C   UNL     1      -3.237   3.592 -25.824  0.00  0.00    +0.175 C 
ATOM      9  C   UNL     1      -4.386   3.910 -25.308  0.00  0.00    +0.178 C 
ATOM     10  C   UNL     1      -4.577   3.795 -24.027  0.00  0.00    +0.189 C 
ATOM     11  C   UNL     1      -3.618   3.362 -23.263  0.00  0.00    +0.241 C 
ATOM     12  O   UNL     1      -3.810   3.247 -21.982  0.00  0.00    -0.452 OA
ATOM     13  C   UNL     1      -2.851   2.814 -21.218  0.00  0.00    +0.340 C 
ATOM     14  O   UNL     1      -3.042   2.699 -19.937  0.00  0.00    -0.245 OA
ATOM     15  C   UNL     1      -0.361   2.293 -23.532  0.00  0.00    +0.169 A 
ENDROOT
BRANCH   1  17
ATOM     16  C   UNL     1       2.678   2.442 -23.405  0.00  0.00    +0.277 C 
ATOM     17  O   UNL     1       1.748   1.542 -23.286  0.00  0.00    -0.489 OA
ENDBRANCH   1  17
BRANCH  10  18
ATOM     18  O   UNL     1      -5.727   4.113 -23.510  0.00  0.00    -0.385 OA
ATOM     19  H   UNL     1      -5.585   4.615 -22.691  0.00  0.00    +0.210 HD
ENDBRANCH  10  18
BRANCH   9  20
ATOM     20  O   UNL     1      -5.345   4.343 -26.071  0.00  0.00    -0.386 OA
ATOM     21  H   UNL     1      -5.955   3.615 -26.268  0.00  0.00    +0.210 HD
ENDBRANCH   9  20
BRANCH  15  22
ATOM     22  O   UNL     1      -0.169   2.408 -24.814  0.00  0.00    -0.503 OA
ATOM     23  H   UNL     1      -0.295   1.667 -25.375  0.00  0.00    +0.292 HD
ENDBRANCH  15  22
BRANCH   2  24
ATOM     24  O   UNL     1       1.366   1.312 -20.724  0.00  0.00    -0.503 OA
ATOM     25  H   UNL     1       1.253   0.521 -20.233  0.00  0.00    +0.292 HD
ENDBRANCH   2  24
BRANCH   8  26
ATOM     26  C   UNL     1      -3.046   3.707 -27.105  0.00  0.00    +0.190 C 
BRANCH  26  27
ATOM     27  O   UNL     1      -3.852   3.117 -27.938  0.00  0.00    -0.392 OA
ATOM     28  H   UNL     1      -3.554   3.281 -28.846  0.00  0.00    +0.210 HD
ENDBRANCH  26  27
ENDBRANCH   8  26
TORSDOF 7
ENDMDL
MODEL 3
REMARK VINA RESULT:    -8.334      1.948      4.248
REMARK INTER + INTRA:         -10.600
REMARK INTER:                 -10.740
REMARK INTRA:                   0.140
REMARK UNBOUND:                -0.073
REMARK  Name = COc1c(O)cc2c(c1O)[C@@H]1O[C@H](CO)[C@@H](O)[C@@H](O)[C@@H]1OC2=O     ZINC000105514848
REMARK  8 active torsions:
REMARK  status: ('A' for Active; 'I' for Inactive)
REMARK    1  A    between atoms: C_1  and  O_2
REMARK    2  A    between atoms: O_2  and  C_3
REMARK    3  A    between atoms: C_4  and  O_5
REMARK    4  A    between atoms: C_9  and  O_10
REMARK    5  A    between atoms: C_13  and  C_14
REMARK    6  A    between atoms: C_14  and  O_15
REMARK    7  A    between atoms: C_16  and  O_17
REMARK    8  A    between atoms: C_18  and  O_19
REMARK                            x       y       z     vdW  Elec       q    Type
REMARK                         _______ _______ _______ _____ _____    ______ ____
ROOT
ATOM      1  C   UNL     1      -1.149   2.468 -22.277  0.00  0.00    +0.203 A 
ATOM      2  C   UNL     1      -1.490   3.193 -23.301  0.00  0.00    +0.163 A 
ATOM      3  C   UNL     1      -0.590   3.567 -24.161  0.00  0.00    +0.064 A 
ATOM      4  C   UNL     1       0.651   3.215 -23.997  0.00  0.00    +0.072 A 
ATOM      5  C   UNL     1       0.992   2.490 -22.973  0.00  0.00    +0.044 A 
ATOM      6  C   UNL     1       2.232   2.138 -22.810  0.00  0.00    +0.196 C 
ATOM      7  O   UNL     1       2.573   1.413 -21.786  0.00  0.00    -0.360 OA
ATOM      8  C   UNL     1       3.813   1.061 -21.622  0.00  0.00    +0.175 C 
ATOM      9  C   UNL     1       4.714   1.434 -22.482  0.00  0.00    +0.178 C 
ATOM     10  C   UNL     1       4.373   2.159 -23.506  0.00  0.00    +0.189 C 
ATOM     11  C   UNL     1       3.133   2.511 -23.670  0.00  0.00    +0.241 C 
ATOM     12  O   UNL     1       2.792   3.236 -24.694  0.00  0.00    -0.452 OA
ATOM     13  C   UNL     1       1.552   3.588 -24.858  0.00  0.00    +0.340 C 
ATOM     14  O   UNL     1       1.211   4.313 -25.881  0.00  0.00    -0.245 OA
ATOM     15  C   UNL     1       0.091   2.116 -22.114  0.00  0.00    +0.169 A 
ENDROOT
BRANCH   1  17
ATOM     16  C   UNL     1      -2.596   2.971 -20.626  0.00  0.00    +0.277 C 
ATOM     17  O   UNL     1      -2.050   2.095 -21.417  0.00  0.00    -0.489 OA
ENDBRANCH   1  17
BRANCH  10  18
ATOM     18  O   UNL     1       5.274   2.532 -24.367  0.00  0.00    -0.385 OA
ATOM     19  H   UNL     1       5.072   3.429 -24.676  0.00  0.00    +0.210 HD
ENDBRANCH  10  18
BRANCH   9  20
ATOM     20  O   UNL     1       5.954   1.082 -22.319  0.00  0.00    -0.386 OA
ATOM     21  H   UNL     1       6.500   1.488 -23.010  0.00  0.00    +0.210 HD
ENDBRANCH   9  20
BRANCH  15  22
ATOM     22  O   UNL     1       0.432   1.391 -21.089  0.00  0.00    -0.503 OA
ATOM     23  H   UNL     1       0.436   0.456 -21.158  0.00  0.00    +0.292 HD
ENDBRANCH  15  22
BRANCH   2  24
ATOM     24  O   UNL     1      -2.731   3.545 -23.465  0.00  0.00    -0.503 OA
ATOM     25  H   UNL     1      -3.394   2.891 -23.568  0.00  0.00    +0.292 HD
ENDBRANCH   2  24
BRANCH   8  26
ATOM     26  C   UNL     1       4.154   0.336 -20.599  0.00  0.00    +0.190 C 
BRANCH  26  27
ATOM     27  O   UNL     1       5.150   0.700 -19.846  0.00  0.00    -0.392 OA
ATOM     28  H   UNL     1       5.980   0.593 -20.335  0.00  0.00    +0.210 HD
ENDBRANCH  26  27
ENDBRANCH   8  26
TORSDOF 7
ENDMDL
MODEL 4
REMARK VINA RESULT:    -8.311      1.343      3.741
REMARK INTER + INTRA:         -10.570
REMARK INTER:                 -10.582
REMARK INTRA:                   0.011
REMARK UNBOUND:                -0.073
REMARK  Name = COc1c(O)cc2c(c1O)[C@@H]1O[C@H](CO)[C@@H](O)[C@@H](O)[C@@H]1OC2=O     ZINC000105514848
REMARK  8 active torsions:
REMARK  status: ('A' for Active; 'I' for Inactive)
REMARK    1  A    between atoms: C_1  and  O_2
REMARK    2  A    between atoms: O_2  and  C_3
REMARK    3  A    between atoms: C_4  and  O_5
REMARK    4  A    between atoms: C_9  and  O_10
REMARK    5  A    between atoms: C_13  and  C_14
REMARK    6  A    between atoms: C_14  and  O_15
REMARK    7  A    between atoms: C_16  and  O_17
REMARK    8  A    between atoms: C_18  and  O_19
REMARK                            x       y       z     vdW  Elec       q    Type
REMARK                         _______ _______ _______ _____ _____    ______ ____
ROOT
ATOM      1  C   UNL     1      -3.325   3.007 -21.650  0.00  0.00    +0.203 A 
ATOM      2  C   UNL     1      -4.180   3.364 -22.563  0.00  0.00    +0.163 A 
ATOM      3  C   UNL     1      -3.792   3.508 -23.795  0.00  0.00    +0.064 A 
ATOM      4  C   UNL     1      -2.550   3.296 -24.114  0.00  0.00    +0.072 A 
ATOM      5  C   UNL     1      -1.695   2.940 -23.202  0.00  0.00    +0.044 A 
ATOM      6  C   UNL     1      -0.453   2.728 -23.521  0.00  0.00    +0.196 C 
ATOM      7  O   UNL     1       0.401   2.372 -22.609  0.00  0.00    -0.360 OA
ATOM      8  C   UNL     1       1.643   2.160 -22.928  0.00  0.00    +0.175 C 
ATOM      9  C   UNL     1       2.031   2.304 -24.160  0.00  0.00    +0.178 C 
ATOM     10  C   UNL     1       1.177   2.660 -25.073  0.00  0.00    +0.189 C 
ATOM     11  C   UNL     1      -0.065   2.872 -24.753  0.00  0.00    +0.241 C 
ATOM     12  O   UNL     1      -0.920   3.229 -25.667  0.00  0.00    -0.452 OA
ATOM     13  C   UNL     1      -2.162   3.440 -25.347  0.00  0.00    +0.340 C 
ATOM     14  O   UNL     1      -3.016   3.797 -26.260  0.00  0.00    -0.245 OA
ATOM     15  C   UNL     1      -2.083   2.796 -21.970  0.00  0.00    +0.169 A 
ENDROOT
BRANCH   1  17
ATOM     16  C   UNL     1      -3.331   3.714 -19.512  0.00  0.00    +0.277 C 
ATOM     17  O   UNL     1      -3.713   2.863 -20.417  0.00  0.00    -0.489 OA
ENDBRANCH   1  17
BRANCH  10  18
ATOM     18  O   UNL     1       1.565   2.805 -26.306  0.00  0.00    -0.385 OA
ATOM     19  H   UNL     1       1.992   3.670 -26.410  0.00  0.00    +0.210 HD
ENDBRANCH  10  18
BRANCH   9  20
ATOM     20  O   UNL     1       3.274   2.093 -24.480  0.00  0.00    -0.386 OA
ATOM     21  H   UNL     1       3.338   1.280 -25.005  0.00  0.00    +0.210 HD
ENDBRANCH   9  20
BRANCH  15  22
ATOM     22  O   UNL     1      -1.229   2.439 -21.056  0.00  0.00    -0.503 OA
ATOM     23  H   UNL     1      -0.596   1.773 -21.241  0.00  0.00    +0.292 HD
ENDBRANCH  15  22
BRANCH   2  24
ATOM     24  O   UNL     1      -5.422   3.575 -22.243  0.00  0.00    -0.503 OA
ATOM     25  H   UNL     1      -6.104   3.096 -22.671  0.00  0.00    +0.292 HD
ENDBRANCH   2  24
BRANCH   8  26
ATOM     26  C   UNL     1       2.498   1.804 -22.016  0.00  0.00    +0.190 C 
BRANCH  26  27
ATOM     27  O   UNL     1       3.439   2.624 -21.651  0.00  0.00    -0.392 OA
ATOM     28  H   UNL     1       4.078   2.154 -21.093  0.00  0.00    +0.210 HD
ENDBRANCH  26  27
ENDBRANCH   8  26
TORSDOF 7
ENDMDL
MODEL 5
REMARK VINA RESULT:    -8.214      1.366      6.210
REMARK INTER + INTRA:         -10.448
REMARK INTER:                 -10.347
REMARK INTRA:                  -0.101
REMARK UNBOUND:                -0.073
REMARK  Name = COc1c(O)cc2c(c1O)[C@@H]1O[C@H](CO)[C@@H](O)[C@@H](O)[C@@H]1OC2=O     ZINC000105514848
REMARK  8 active torsions:
REMARK  status: ('A' for Active; 'I' for Inactive)
REMARK    1  A    between atoms: C_1  and  O_2
REMARK    2  A    between atoms: O_2  and  C_3
REMARK    3  A    between atoms: C_4  and  O_5
REMARK    4  A    between atoms: C_9  and  O_10
REMARK    5  A    between atoms: C_13  and  C_14
REMARK    6  A    between atoms: C_14  and  O_15
REMARK    7  A    between atoms: C_16  and  O_17
REMARK    8  A    between atoms: C_18  and  O_19
REMARK                            x       y       z     vdW  Elec       q    Type
REMARK                         _______ _______ _______ _____ _____    ______ ____
ROOT
ATOM      1  C   UNL     1       2.218   1.124 -22.469  0.00  0.00    +0.203 A 
ATOM      2  C   UNL     1       2.935   1.506 -23.483  0.00  0.00    +0.163 A 
ATOM      3  C   UNL     1       2.417   2.277 -24.392  0.00  0.00    +0.064 A 
ATOM      4  C   UNL     1       1.181   2.667 -24.286  0.00  0.00    +0.072 A 
ATOM      5  C   UNL     1       0.464   2.285 -23.272  0.00  0.00    +0.044 A 
ATOM      6  C   UNL     1      -0.772   2.674 -23.166  0.00  0.00    +0.196 C 
ATOM      7  O   UNL     1      -1.489   2.293 -22.152  0.00  0.00    -0.360 OA
ATOM      8  C   UNL     1      -2.725   2.682 -22.046  0.00  0.00    +0.175 C 
ATOM      9  C   UNL     1      -3.243   3.453 -22.954  0.00  0.00    +0.178 C 
ATOM     10  C   UNL     1      -2.526   3.835 -23.969  0.00  0.00    +0.189 C 
ATOM     11  C   UNL     1      -1.290   3.446 -24.074  0.00  0.00    +0.241 C 
ATOM     12  O   UNL     1      -0.573   3.828 -25.090  0.00  0.00    -0.452 OA
ATOM     13  C   UNL     1       0.663   3.439 -25.195  0.00  0.00    +0.340 C 
ATOM     14  O   UNL     1       1.381   3.821 -26.210  0.00  0.00    -0.245 OA
ATOM     15  C   UNL     1       0.982   1.514 -22.363  0.00  0.00    +0.169 A 
ENDROOT
BRANCH   1  17
ATOM     16  C   UNL     1       3.470   0.863 -20.615  0.00  0.00    +0.277 C 
ATOM     17  O   UNL     1       2.736   0.352 -21.559  0.00  0.00    -0.489 OA
ENDBRANCH   1  17
BRANCH  10  18
ATOM     18  O   UNL     1      -3.044   4.607 -24.878  0.00  0.00    -0.385 OA
ATOM     19  H   UNL     1      -3.050   4.143 -25.730  0.00  0.00    +0.210 HD
ENDBRANCH  10  18
BRANCH   9  20
ATOM     20  O   UNL     1      -4.479   3.843 -22.849  0.00  0.00    -0.386 OA
ATOM     21  H   UNL     1      -4.617   4.249 -21.979  0.00  0.00    +0.210 HD
ENDBRANCH   9  20
BRANCH  15  22
ATOM     22  O   UNL     1       0.265   1.131 -21.348  0.00  0.00    -0.503 OA
ATOM     23  H   UNL     1      -0.573   1.521 -21.193  0.00  0.00    +0.292 HD
ENDBRANCH  15  22
BRANCH   2  24
ATOM     24  O   UNL     1       4.171   1.116 -23.589  0.00  0.00    -0.503 OA
ATOM     25  H   UNL     1       4.678   0.950 -22.818  0.00  0.00    +0.292 HD
ENDBRANCH   2  24
BRANCH   8  26
ATOM     26  C   UNL     1      -3.443   2.300 -21.032  0.00  0.00    +0.190 C 
BRANCH  26  27
ATOM     27  O   UNL     1      -3.672   3.122 -20.050  0.00  0.00    -0.392 OA
ATOM     28  H   UNL     1      -4.605   3.065 -19.792  0.00  0.00    +0.210 HD
ENDBRANCH  26  27
ENDBRANCH   8  26
TORSDOF 7
ENDMDL
MODEL 6
REMARK VINA RESULT:    -7.670      2.912      6.487
REMARK INTER + INTRA:          -9.762
REMARK INTER:                  -9.821
REMARK INTRA:                   0.060
REMARK UNBOUND:                -0.073
REMARK  Name = COc1c(O)cc2c(c1O)[C@@H]1O[C@H](CO)[C@@H](O)[C@@H](O)[C@@H]1OC2=O     ZINC000105514848
REMARK  8 active torsions:
REMARK  status: ('A' for Active; 'I' for Inactive)
REMARK    1  A    between atoms: C_1  and  O_2
REMARK    2  A    between atoms: O_2  and  C_3
REMARK    3  A    between atoms: C_4  and  O_5
REMARK    4  A    between atoms: C_9  and  O_10
REMARK    5  A    between atoms: C_13  and  C_14
REMARK    6  A    between atoms: C_14  and  O_15
REMARK    7  A    between atoms: C_16  and  O_17
REMARK    8  A    between atoms: C_18  and  O_19
REMARK                            x       y       z     vdW  Elec       q    Type
REMARK                         _______ _______ _______ _____ _____    ______ ____
ROOT
ATOM      1  C   UNL     1       5.247   3.880 -22.741  0.00  0.00    +0.203 A 
ATOM      2  C   UNL     1       5.869   2.901 -22.154  0.00  0.00    +0.163 A 
ATOM      3  C   UNL     1       5.197   1.887 -21.697  0.00  0.00    +0.064 A 
ATOM      4  C   UNL     1       3.904   1.851 -21.826  0.00  0.00    +0.072 A 
ATOM      5  C   UNL     1       3.282   2.831 -22.413  0.00  0.00    +0.044 A 
ATOM      6  C   UNL     1       1.989   2.795 -22.542  0.00  0.00    +0.196 C 
ATOM      7  O   UNL     1       1.368   3.775 -23.128  0.00  0.00    -0.360 OA
ATOM      8  C   UNL     1       0.075   3.740 -23.257  0.00  0.00    +0.175 C 
ATOM      9  C   UNL     1      -0.597   2.725 -22.800  0.00  0.00    +0.178 C 
ATOM     10  C   UNL     1       0.025   1.746 -22.213  0.00  0.00    +0.189 C 
ATOM     11  C   UNL     1       1.318   1.781 -22.084  0.00  0.00    +0.241 C 
ATOM     12  O   UNL     1       1.939   0.801 -21.497  0.00  0.00    -0.452 OA
ATOM     13  C   UNL     1       3.233   0.836 -21.368  0.00  0.00    +0.340 C 
ATOM     14  O   UNL     1       3.854  -0.143 -20.781  0.00  0.00    -0.245 OA
ATOM     15  C   UNL     1       3.954   3.845 -22.870  0.00  0.00    +0.169 A 
ENDROOT
BRANCH   1  17
ATOM     16  C   UNL     1       6.246   5.870 -22.403  0.00  0.00    +0.277 C 
ATOM     17  O   UNL     1       5.918   4.895 -23.199  0.00  0.00    -0.489 OA
ENDBRANCH   1  17
BRANCH  10  18
ATOM     18  O   UNL     1      -0.647   0.731 -21.756  0.00  0.00    -0.385 OA
ATOM     19  H   UNL     1      -1.569   0.793 -22.052  0.00  0.00    +0.210 HD
ENDBRANCH  10  18
BRANCH   9  20
ATOM     20  O   UNL     1      -1.890   2.690 -22.929  0.00  0.00    -0.386 OA
ATOM     21  H   UNL     1      -2.118   2.499 -23.852  0.00  0.00    +0.210 HD
ENDBRANCH   9  20
BRANCH  15  22
ATOM     22  O   UNL     1       3.332   4.825 -23.457  0.00  0.00    -0.503 OA
ATOM     23  H   UNL     1       3.385   5.692 -23.105  0.00  0.00    +0.292 HD
ENDBRANCH  15  22
BRANCH   2  24
ATOM     24  O   UNL     1       7.162   2.936 -22.025  0.00  0.00    -0.503 OA
ATOM     25  H   UNL     1       7.673   3.495 -22.577  0.00  0.00    +0.292 HD
ENDBRANCH   2  24
BRANCH   8  26
ATOM     26  C   UNL     1      -0.547   4.719 -23.844  0.00  0.00    +0.190 C 
BRANCH  26  27
ATOM     27  O   UNL     1      -0.379   5.939 -23.427  0.00  0.00    -0.392 OA
ATOM     28  H   UNL     1      -0.581   5.987 -22.480  0.00  0.00    +0.210 HD
ENDBRANCH  26  27
ENDBRANCH   8  26
TORSDOF 7
ENDMDL
MODEL 7
REMARK VINA RESULT:    -7.451      3.772      5.528
REMARK INTER + INTRA:          -9.484
REMARK INTER:                  -9.416
REMARK INTRA:                  -0.068
REMARK UNBOUND:                -0.073
REMARK  Name = COc1c(O)cc2c(c1O)[C@@H]1O[C@H](CO)[C@@H](O)[C@@H](O)[C@@H]1OC2=O     ZINC000105514848
REMARK  8 active torsions:
REMARK  status: ('A' for Active; 'I' for Inactive)
REMARK    1  A    between atoms: C_1  and  O_2
REMARK    2  A    between atoms: O_2  and  C_3
REMARK    3  A    between atoms: C_4  and  O_5
REMARK    4  A    between atoms: C_9  and  O_10
REMARK    5  A    between atoms: C_13  and  C_14
REMARK    6  A    between atoms: C_14  and  O_15
REMARK    7  A    between atoms: C_16  and  O_17
REMARK    8  A    between atoms: C_18  and  O_19
REMARK                            x       y       z     vdW  Elec       q    Type
REMARK                         _______ _______ _______ _____ _____    ______ ____
ROOT
ATOM      1  C   UNL     1       0.781   4.432 -23.866  0.00  0.00    +0.203 A 
ATOM      2  C   UNL     1       0.459   3.265 -24.340  0.00  0.00    +0.163 A 
ATOM      3  C   UNL     1       1.361   2.336 -24.448  0.00  0.00    +0.064 A 
ATOM      4  C   UNL     1       2.586   2.574 -24.081  0.00  0.00    +0.072 A 
ATOM      5  C   UNL     1       2.908   3.740 -23.608  0.00  0.00    +0.044 A 
ATOM      6  C   UNL     1       4.132   3.978 -23.241  0.00  0.00    +0.196 C 
ATOM      7  O   UNL     1       4.454   5.145 -22.767  0.00  0.00    -0.360 OA
ATOM      8  C   UNL     1       5.679   5.382 -22.401  0.00  0.00    +0.175 C 
ATOM      9  C   UNL     1       6.581   4.453 -22.509  0.00  0.00    +0.178 C 
ATOM     10  C   UNL     1       6.259   3.287 -22.982  0.00  0.00    +0.189 C 
ATOM     11  C   UNL     1       5.035   3.049 -23.349  0.00  0.00    +0.241 C 
ATOM     12  O   UNL     1       4.713   1.881 -23.823  0.00  0.00    -0.452 OA
ATOM     13  C   UNL     1       3.489   1.644 -24.189  0.00  0.00    +0.340 C 
ATOM     14  O   UNL     1       3.167   0.477 -24.663  0.00  0.00    -0.245 OA
ATOM     15  C   UNL     1       2.005   4.669 -23.500  0.00  0.00    +0.169 A 
ENDROOT
BRANCH   1  17
ATOM     16  C   UNL     1      -0.966   5.336 -22.770  0.00  0.00    +0.277 C 
ATOM     17  O   UNL     1      -0.122   5.362 -23.759  0.00  0.00    -0.489 OA
ENDBRANCH   1  17
BRANCH  10  18
ATOM     18  O   UNL     1       7.162   2.357 -23.090  0.00  0.00    -0.385 OA
ATOM     19  H   UNL     1       8.044   2.753 -23.012  0.00  0.00    +0.210 HD
ENDBRANCH  10  18
BRANCH   9  20
ATOM     20  O   UNL     1       7.806   4.691 -22.142  0.00  0.00    -0.386 OA
ATOM     21  H   UNL     1       7.822   4.925 -21.201  0.00  0.00    +0.210 HD
ENDBRANCH   9  20
BRANCH  15  22
ATOM     22  O   UNL     1       2.327   5.837 -23.026  0.00  0.00    -0.503 OA
ATOM     23  H   UNL     1       1.856   6.194 -22.299  0.00  0.00    +0.292 HD
ENDBRANCH  15  22
BRANCH   2  24
ATOM     24  O   UNL     1      -0.766   3.027 -24.707  0.00  0.00    -0.503 OA
ATOM     25  H   UNL     1      -1.468   3.537 -24.352  0.00  0.00    +0.292 HD
ENDBRANCH   2  24
BRANCH   8  26
ATOM     26  C   UNL     1       6.001   6.549 -21.927  0.00  0.00    +0.190 C 
BRANCH  26  27
ATOM     27  O   UNL     1       6.820   7.315 -22.586  0.00  0.00    -0.392 OA
ATOM     28  H   UNL     1       7.005   8.113 -22.066  0.00  0.00    +0.210 HD
ENDBRANCH  26  27
ENDBRANCH   8  26
TORSDOF 7
ENDMDL
MODEL 8
REMARK VINA RESULT:    -7.304      4.469      7.571
REMARK INTER + INTRA:          -9.299
REMARK INTER:                  -9.171
REMARK INTRA:                  -0.128
REMARK UNBOUND:                -0.073
REMARK  Name = COc1c(O)cc2c(c1O)[C@@H]1O[C@H](CO)[C@@H](O)[C@@H](O)[C@@H]1OC2=O     ZINC000105514848
REMARK  8 active torsions:
REMARK  status: ('A' for Active; 'I' for Inactive)
REMARK    1  A    between atoms: C_1  and  O_2
REMARK    2  A    between atoms: O_2  and  C_3
REMARK    3  A    between atoms: C_4  and  O_5
REMARK    4  A    between atoms: C_9  and  O_10
REMARK    5  A    between atoms: C_13  and  C_14
REMARK    6  A    between atoms: C_14  and  O_15
REMARK    7  A    between atoms: C_16  and  O_17
REMARK    8  A    between atoms: C_18  and  O_19
REMARK                            x       y       z     vdW  Elec       q    Type
REMARK                         _______ _______ _______ _____ _____    ______ ____
ROOT
ATOM      1  C   UNL     1       7.128   3.903 -23.092  0.00  0.00    +0.203 A 
ATOM      2  C   UNL     1       7.404   4.974 -22.407  0.00  0.00    +0.163 A 
ATOM      3  C   UNL     1       6.458   5.814 -22.107  0.00  0.00    +0.064 A 
ATOM      4  C   UNL     1       5.238   5.584 -22.492  0.00  0.00    +0.072 A 
ATOM      5  C   UNL     1       4.963   4.514 -23.176  0.00  0.00    +0.044 A 
ATOM      6  C   UNL     1       3.743   4.284 -23.561  0.00  0.00    +0.196 C 
ATOM      7  O   UNL     1       3.467   3.213 -24.245  0.00  0.00    -0.360 OA
ATOM      8  C   UNL     1       2.247   2.983 -24.630  0.00  0.00    +0.175 C 
ATOM      9  C   UNL     1       1.302   3.824 -24.330  0.00  0.00    +0.178 C 
ATOM     10  C   UNL     1       1.577   4.894 -23.646  0.00  0.00    +0.189 C 
ATOM     11  C   UNL     1       2.797   5.124 -23.261  0.00  0.00    +0.241 C 
ATOM     12  O   UNL     1       3.072   6.195 -22.576  0.00  0.00    -0.452 OA
ATOM     13  C   UNL     1       4.293   6.425 -22.192  0.00  0.00    +0.340 C 
ATOM     14  O   UNL     1       4.568   7.495 -21.507  0.00  0.00    -0.245 OA
ATOM     15  C   UNL     1       5.908   3.673 -23.476  0.00  0.00    +0.169 A 
ENDROOT
BRANCH   1  17
ATOM     16  C   UNL     1       8.735   3.198 -24.503  0.00  0.00    +0.277 C 
ATOM     17  O   UNL     1       8.074   3.062 -23.392  0.00  0.00    -0.489 OA
ENDBRANCH   1  17
BRANCH  10  18
ATOM     18  O   UNL     1       0.632   5.735 -23.345  0.00  0.00    -0.385 OA
ATOM     19  H   UNL     1       0.876   6.221 -22.542  0.00  0.00    +0.210 HD
ENDBRANCH  10  18
BRANCH   9  20
ATOM     20  O   UNL     1       0.082   3.594 -24.715  0.00  0.00    -0.386 OA
ATOM     21  H   UNL     1      -0.032   2.645 -24.880  0.00  0.00    +0.210 HD
ENDBRANCH   9  20
BRANCH  15  22
ATOM     22  O   UNL     1       5.633   2.602 -24.161  0.00  0.00    -0.503 OA
ATOM     23  H   UNL     1       5.551   2.651 -25.094  0.00  0.00    +0.292 HD
ENDBRANCH  15  22
BRANCH   2  24
ATOM     24  O   UNL     1       8.624   5.204 -22.023  0.00  0.00    -0.503 OA
ATOM     25  H   UNL     1       9.176   5.767 -22.528  0.00  0.00    +0.292 HD
ENDBRANCH   2  24
BRANCH   8  26
ATOM     26  C   UNL     1       1.972   1.913 -25.314  0.00  0.00    +0.190 C 
BRANCH  26  27
ATOM     27  O   UNL     1       1.696   2.005 -26.582  0.00  0.00    -0.392 OA
ATOM     28  H   UNL     1       1.407   2.908 -26.785  0.00  0.00    +0.210 HD
ENDBRANCH  26  27
ENDBRANCH   8  26
TORSDOF 7
ENDMDL
MODEL 9
REMARK VINA RESULT:    -6.538      2.623      4.152
REMARK INTER + INTRA:          -8.331
REMARK INTER:                  -8.258
REMARK INTRA:                  -0.073
REMARK UNBOUND:                -0.073
REMARK  Name = COc1c(O)cc2c(c1O)[C@@H]1O[C@H](CO)[C@@H](O)[C@@H](O)[C@@H]1OC2=O     ZINC000105514848
REMARK  8 active torsions:
REMARK  status: ('A' for Active; 'I' for Inactive)
REMARK    1  A    between atoms: C_1  and  O_2
REMARK    2  A    between atoms: O_2  and  C_3
REMARK    3  A    between atoms: C_4  and  O_5
REMARK    4  A    between atoms: C_9  and  O_10
REMARK    5  A    between atoms: C_13  and  C_14
REMARK    6  A    between atoms: C_14  and  O_15
REMARK    7  A    between atoms: C_16  and  O_17
REMARK    8  A    between atoms: C_18  and  O_19
REMARK                            x       y       z     vdW  Elec       q    Type
REMARK                         _______ _______ _______ _____ _____    ______ ____
ROOT
ATOM      1  C   UNL     1      -0.847   2.936 -22.895  0.00  0.00    +0.203 A 
ATOM      2  C   UNL     1      -1.014   4.155 -23.314  0.00  0.00    +0.163 A 
ATOM      3  C   UNL     1       0.012   4.939 -23.458  0.00  0.00    +0.064 A 
ATOM      4  C   UNL     1       1.206   4.504 -23.183  0.00  0.00    +0.072 A 
ATOM      5  C   UNL     1       1.373   3.285 -22.764  0.00  0.00    +0.044 A 
ATOM      6  C   UNL     1       2.567   2.850 -22.490  0.00  0.00    +0.196 C 
ATOM      7  O   UNL     1       2.735   1.631 -22.071  0.00  0.00    -0.360 OA
ATOM      8  C   UNL     1       3.928   1.196 -21.796  0.00  0.00    +0.175 C 
ATOM      9  C   UNL     1       4.955   1.980 -21.940  0.00  0.00    +0.178 C 
ATOM     10  C   UNL     1       4.788   3.199 -22.359  0.00  0.00    +0.189 C 
ATOM     11  C   UNL     1       3.594   3.634 -22.634  0.00  0.00    +0.241 C 
ATOM     12  O   UNL     1       3.427   4.854 -23.053  0.00  0.00    -0.452 OA
ATOM     13  C   UNL     1       2.233   5.289 -23.328  0.00  0.00    +0.340 C 
ATOM     14  O   UNL     1       2.065   6.508 -23.747  0.00  0.00    -0.245 OA
ATOM     15  C   UNL     1       0.347   2.501 -22.620  0.00  0.00    +0.169 A 
ENDROOT
BRANCH   1  17
ATOM     16  C   UNL     1      -2.597   2.219 -21.672  0.00  0.00    +0.277 C 
ATOM     17  O   UNL     1      -1.874   2.151 -22.750  0.00  0.00    -0.489 OA
ENDBRANCH   1  17
BRANCH  10  18
ATOM     18  O   UNL     1       5.814   3.984 -22.504  0.00  0.00    -0.385 OA
ATOM     19  H   UNL     1       6.626   3.494 -22.297  0.00  0.00    +0.210 HD
ENDBRANCH  10  18
BRANCH   9  20
ATOM     20  O   UNL     1       6.149   1.545 -21.666  0.00  0.00    -0.386 OA
ATOM     21  H   UNL     1       6.170   1.210 -20.756  0.00  0.00    +0.210 HD
ENDBRANCH   9  20
BRANCH  15  22
ATOM     22  O   UNL     1       0.514   1.281 -22.201  0.00  0.00    -0.503 OA
ATOM     23  H   UNL     1      -0.214   0.798 -21.862  0.00  0.00    +0.292 HD
ENDBRANCH  15  22
BRANCH   2  24
ATOM     24  O   UNL     1      -2.208   4.590 -23.588  0.00  0.00    -0.503 OA
ATOM     25  H   UNL     1      -2.505   4.616 -24.477  0.00  0.00    +0.292 HD
ENDBRANCH   2  24
BRANCH   8  26
ATOM     26  C   UNL     1       4.096  -0.023 -21.377  0.00  0.00    +0.190 C 
BRANCH  26  27
ATOM     27  O   UNL     1       4.672  -0.244 -20.233  0.00  0.00    -0.392 OA
ATOM     28  H   UNL     1       5.634  -0.173 -20.336  0.00  0.00    +0.210 HD
ENDBRANCH  26  27
ENDBRANCH   8  26
TORSDOF 7
ENDMDL
