MODEL 1
REMARK VINA RESULT:    -9.513      0.000      0.000
REMARK INTER + INTRA:         -10.347
REMARK INTER:                 -10.347
REMARK INTRA:                   0.000
REMARK UNBOUND:                 0.000
REMARK  Name = ZINC000004104719
REMARK  6 active torsions:
REMARK  status: ('A' for Active; 'I' for Inactive)
REMARK    1  A    between atoms: C_1  and  C_2
REMARK    2  A    between atoms: C_2  and  C_3
REMARK    3  A    between atoms: C_7  and  O_8
REMARK    4  A    between atoms: C_9  and  C_10
REMARK    5  A    between atoms: C_13  and  C_14
REMARK    6  A    between atoms: C_13  and  O_15
REMARK                            x       y       z     vdW  Elec       q    Type
REMARK                         _______ _______ _______ _____ _____    ______ ____
ROOT
ATOM      1  C   UNL     1      -0.303   1.875 -21.284  0.00  0.00    +0.011 C 
ATOM      2  C   UNL     1      -1.028   2.284 -22.283  0.00  0.00    -0.028 C 
ATOM      3  C   UNL     1      -2.161   2.479 -21.676  0.00  0.00    -0.001 C 
ATOM      4  C   UNL     1      -3.201   2.614 -20.908  0.00  0.00    +0.007 C 
ATOM      5  C   UNL     1      -4.395   3.015 -21.225  0.00  0.00    +0.032 C 
ATOM      6  C   UNL     1      -4.845   3.381 -22.389  0.00  0.00    +0.121 C 
ATOM      7  C   UNL     1      -4.212   3.435 -23.522  0.00  0.00    -0.000 C 
ATOM      8  C   UNL     1      -4.765   3.819 -24.635  0.00  0.00    +0.012 C 
ATOM      9  C   UNL     1      -3.866   3.758 -25.572  0.00  0.00    +0.035 C 
ATOM     10  C   UNL     1      -2.757   3.337 -25.039  0.00  0.00    +0.067 C 
ATOM     11  C   UNL     1      -2.292   3.454 -26.248  0.00  0.00    +0.041 C 
ATOM     12  C   UNL     1      -5.464   3.783 -23.499  0.00  0.00    +0.014 C 
ATOM     13  C   UNL     1      -2.971   3.137 -23.773  0.00  0.00    +0.033 C 
ATOM     14  C   UNL     1      -0.146   2.232 -23.237  0.00  0.00    +0.011 C 
ATOM     15  C   UNL     1      -2.058   2.711 -22.951  0.00  0.00    +0.005 C 
ENDROOT
BRANCH  10  16
ATOM     16  O   UNL     1      -1.551   2.940 -24.759  0.00  0.00    -0.389 OA
ATOM     17  H   UNL     1      -1.515   1.971 -24.790  0.00  0.00    +0.210 HD
ENDBRANCH  10  16
BRANCH   6  18
ATOM     18  O   UNL     1      -6.095   3.740 -22.423  0.00  0.00    -0.391 OA
ATOM     19  H   UNL     1      -6.266   4.382 -21.716  0.00  0.00    +0.210 HD
ENDBRANCH   6  18
TORSDOF 2
ENDMDL
MODEL 2
REMARK VINA RESULT:    -9.397      1.430      3.087
REMARK INTER + INTRA:         -10.221
REMARK INTER:                 -10.221
REMARK INTRA:                   0.000
REMARK UNBOUND:                 0.000
REMARK  Name = ZINC000004104719
REMARK  6 active torsions:
REMARK  status: ('A' for Active; 'I' for Inactive)
REMARK    1  A    between atoms: C_1  and  C_2
REMARK    2  A    between atoms: C_2  and  C_3
REMARK    3  A    between atoms: C_7  and  O_8
REMARK    4  A    between atoms: C_9  and  C_10
REMARK    5  A    between atoms: C_13  and  C_14
REMARK    6  A    between atoms: C_13  and  O_15
REMARK                            x       y       z     vdW  Elec       q    Type
REMARK                         _______ _______ _______ _____ _____    ______ ____
ROOT
ATOM      1  C   UNL     1       0.472   2.300 -23.275  0.00  0.00    +0.011 C 
ATOM      2  C   UNL     1      -0.769   2.467 -22.924  0.00  0.00    -0.028 C 
ATOM      3  C   UNL     1      -1.246   2.988 -24.016  0.00  0.00    -0.001 C 
ATOM      4  C   UNL     1      -1.541   3.491 -25.177  0.00  0.00    +0.007 C 
ATOM      5  C   UNL     1      -2.689   3.926 -25.603  0.00  0.00    +0.032 C 
ATOM      6  C   UNL     1      -3.826   3.963 -24.974  0.00  0.00    +0.121 C 
ATOM      7  C   UNL     1      -4.095   3.576 -23.763  0.00  0.00    -0.000 C 
ATOM      8  C   UNL     1      -5.278   3.661 -23.229  0.00  0.00    +0.012 C 
ATOM      9  C   UNL     1      -5.207   3.192 -22.018  0.00  0.00    +0.035 C 
ATOM     10  C   UNL     1      -3.981   2.818 -21.803  0.00  0.00    +0.067 C 
ATOM     11  C   UNL     1      -4.432   2.489 -20.629  0.00  0.00    +0.041 C 
ATOM     12  C   UNL     1      -5.059   4.074 -24.478  0.00  0.00    +0.014 C 
ATOM     13  C   UNL     1      -3.293   3.055 -22.881  0.00  0.00    +0.033 C 
ATOM     14  C   UNL     1      -0.724   2.003 -21.710  0.00  0.00    +0.011 C 
ATOM     15  C   UNL     1      -2.025   2.793 -22.993  0.00  0.00    +0.005 C 
ENDROOT
BRANCH  10  16
ATOM     16  O   UNL     1      -2.848   2.375 -21.342  0.00  0.00    -0.389 OA
ATOM     17  H   UNL     1      -2.221   2.272 -22.074  0.00  0.00    +0.210 HD
ENDBRANCH  10  16
BRANCH   6  18
ATOM     18  O   UNL     1      -4.827   4.453 -25.645  0.00  0.00    -0.391 OA
ATOM     19  H   UNL     1      -4.497   5.098 -26.291  0.00  0.00    +0.210 HD
ENDBRANCH   6  18
TORSDOF 2
ENDMDL
MODEL 3
REMARK VINA RESULT:    -8.809      1.143      3.477
REMARK INTER + INTRA:          -9.582
REMARK INTER:                  -9.582
REMARK INTRA:                   0.000
REMARK UNBOUND:                 0.000
REMARK  Name = ZINC000004104719
REMARK  6 active torsions:
REMARK  status: ('A' for Active; 'I' for Inactive)
REMARK    1  A    between atoms: C_1  and  C_2
REMARK    2  A    between atoms: C_2  and  C_3
REMARK    3  A    between atoms: C_7  and  O_8
REMARK    4  A    between atoms: C_9  and  C_10
REMARK    5  A    between atoms: C_13  and  C_14
REMARK    6  A    between atoms: C_13  and  O_15
REMARK                            x       y       z     vdW  Elec       q    Type
REMARK                         _______ _______ _______ _____ _____    ______ ____
ROOT
ATOM      1  C   UNL     1      -4.155   2.478 -20.161  0.00  0.00    +0.011 C 
ATOM      2  C   UNL     1      -3.982   2.783 -21.413  0.00  0.00    -0.028 C 
ATOM      3  C   UNL     1      -2.725   2.479 -21.548  0.00  0.00    -0.001 C 
ATOM      4  C   UNL     1      -1.476   2.125 -21.495  0.00  0.00    +0.007 C 
ATOM      5  C   UNL     1      -0.586   2.149 -22.442  0.00  0.00    +0.032 C 
ATOM      6  C   UNL     1      -0.725   2.534 -23.676  0.00  0.00    +0.121 C 
ATOM      7  C   UNL     1      -1.789   2.989 -24.268  0.00  0.00    -0.000 C 
ATOM      8  C   UNL     1      -1.817   3.347 -25.517  0.00  0.00    +0.012 C 
ATOM      9  C   UNL     1      -3.021   3.752 -25.792  0.00  0.00    +0.035 C 
ATOM     10  C   UNL     1      -3.739   3.643 -24.714  0.00  0.00    +0.067 C 
ATOM     11  C   UNL     1      -4.691   4.113 -25.464  0.00  0.00    +0.041 C 
ATOM     12  C   UNL     1      -0.695   2.887 -24.961  0.00  0.00    +0.014 C 
ATOM     13  C   UNL     1      -2.977   3.172 -23.771  0.00  0.00    +0.033 C 
ATOM     14  C   UNL     1      -5.179   3.192 -21.713  0.00  0.00    +0.011 C 
ATOM     15  C   UNL     1      -3.394   2.945 -22.561  0.00  0.00    +0.005 C 
ENDROOT
BRANCH  10  16
ATOM     16  O   UNL     1      -4.655   3.633 -23.791  0.00  0.00    -0.389 OA
ATOM     17  H   UNL     1      -5.434   3.157 -24.116  0.00  0.00    +0.210 HD
ENDBRANCH  10  16
BRANCH   6  18
ATOM     18  O   UNL     1       0.341   2.452 -24.416  0.00  0.00    -0.391 OA
ATOM     19  H   UNL     1       0.293   1.653 -24.964  0.00  0.00    +0.210 HD
ENDBRANCH   6  18
TORSDOF 2
ENDMDL
MODEL 4
REMARK VINA RESULT:    -8.789      1.239      4.397
REMARK INTER + INTRA:          -9.560
REMARK INTER:                  -9.560
REMARK INTRA:                   0.000
REMARK UNBOUND:                 0.000
REMARK  Name = ZINC000004104719
REMARK  6 active torsions:
REMARK  status: ('A' for Active; 'I' for Inactive)
REMARK    1  A    between atoms: C_1  and  C_2
REMARK    2  A    between atoms: C_2  and  C_3
REMARK    3  A    between atoms: C_7  and  O_8
REMARK    4  A    between atoms: C_9  and  C_10
REMARK    5  A    between atoms: C_13  and  C_14
REMARK    6  A    between atoms: C_13  and  O_15
REMARK                            x       y       z     vdW  Elec       q    Type
REMARK                         _______ _______ _______ _____ _____    ______ ____
ROOT
ATOM      1  C   UNL     1      -3.298   3.749 -26.843  0.00  0.00    +0.011 C 
ATOM      2  C   UNL     1      -3.514   3.555 -25.575  0.00  0.00    -0.028 C 
ATOM      3  C   UNL     1      -2.302   3.310 -25.174  0.00  0.00    -0.001 C 
ATOM      4  C   UNL     1      -1.040   3.090 -24.958  0.00  0.00    +0.007 C 
ATOM      5  C   UNL     1      -0.446   2.806 -23.838  0.00  0.00    +0.032 C 
ATOM      6  C   UNL     1      -0.969   2.671 -22.655  0.00  0.00    +0.121 C 
ATOM      7  C   UNL     1      -2.214   2.787 -22.301  0.00  0.00    -0.000 C 
ATOM      8  C   UNL     1      -2.629   2.630 -21.079  0.00  0.00    +0.012 C 
ATOM      9  C   UNL     1      -3.917   2.812 -21.067  0.00  0.00    +0.035 C 
ATOM     10  C   UNL     1      -4.297   3.082 -22.280  0.00  0.00    +0.067 C 
ATOM     11  C   UNL     1      -5.480   3.157 -21.746  0.00  0.00    +0.041 C 
ATOM     12  C   UNL     1      -1.338   2.499 -21.386  0.00  0.00    +0.014 C 
ATOM     13  C   UNL     1      -3.245   3.067 -23.043  0.00  0.00    +0.033 C 
ATOM     14  C   UNL     1      -4.802   3.733 -25.536  0.00  0.00    +0.011 C 
ATOM     15  C   UNL     1      -3.284   3.300 -24.322  0.00  0.00    +0.005 C 
ENDROOT
BRANCH  10  16
ATOM     16  O   UNL     1      -4.925   3.368 -23.382  0.00  0.00    -0.389 OA
ATOM     17  H   UNL     1      -4.282   3.488 -24.098  0.00  0.00    +0.210 HD
ENDBRANCH  10  16
BRANCH   6  18
ATOM     18  O   UNL     1      -0.135   2.382 -21.700  0.00  0.00    -0.391 OA
ATOM     19  H   UNL     1       0.638   1.929 -22.072  0.00  0.00    +0.210 HD
ENDBRANCH   6  18
TORSDOF 2
ENDMDL
MODEL 5
REMARK VINA RESULT:    -8.714      0.835      3.349
REMARK INTER + INTRA:          -9.478
REMARK INTER:                  -9.478
REMARK INTRA:                   0.000
REMARK UNBOUND:                 0.000
REMARK  Name = ZINC000004104719
REMARK  6 active torsions:
REMARK  status: ('A' for Active; 'I' for Inactive)
REMARK    1  A    between atoms: C_1  and  C_2
REMARK    2  A    between atoms: C_2  and  C_3
REMARK    3  A    between atoms: C_7  and  O_8
REMARK    4  A    between atoms: C_9  and  C_10
REMARK    5  A    between atoms: C_13  and  C_14
REMARK    6  A    between atoms: C_13  and  O_15
REMARK                            x       y       z     vdW  Elec       q    Type
REMARK                         _______ _______ _______ _____ _____    ______ ____
ROOT
ATOM      1  C   UNL     1      -2.503   3.724 -26.884  0.00  0.00    +0.011 C 
ATOM      2  C   UNL     1      -2.408   3.477 -25.610  0.00  0.00    -0.028 C 
ATOM      3  C   UNL     1      -3.647   3.641 -25.254  0.00  0.00    -0.001 C 
ATOM      4  C   UNL     1      -4.919   3.845 -25.086  0.00  0.00    +0.007 C 
ATOM      5  C   UNL     1      -5.613   3.775 -23.989  0.00  0.00    +0.032 C 
ATOM      6  C   UNL     1      -5.205   3.484 -22.789  0.00  0.00    +0.121 C 
ATOM      7  C   UNL     1      -4.003   3.191 -22.390  0.00  0.00    -0.000 C 
ATOM      8  C   UNL     1      -3.705   2.914 -21.155  0.00  0.00    +0.012 C 
ATOM      9  C   UNL     1      -2.430   2.668 -21.096  0.00  0.00    +0.035 C 
ATOM     10  C   UNL     1      -1.939   2.793 -22.293  0.00  0.00    +0.067 C 
ATOM     11  C   UNL     1      -0.816   2.483 -21.717  0.00  0.00    +0.041 C 
ATOM     12  C   UNL     1      -4.957   3.208 -21.509  0.00  0.00    +0.014 C 
ATOM     13  C   UNL     1      -2.911   3.116 -23.093  0.00  0.00    +0.033 C 
ATOM     14  C   UNL     1      -1.134   3.227 -25.525  0.00  0.00    +0.011 C 
ATOM     15  C   UNL     1      -2.753   3.317 -24.368  0.00  0.00    +0.005 C 
ENDROOT
BRANCH  10  16
ATOM     16  O   UNL     1      -1.214   2.854 -23.370  0.00  0.00    -0.389 OA
ATOM     17  H   UNL     1      -0.280   2.944 -23.125  0.00  0.00    +0.210 HD
ENDBRANCH  10  16
BRANCH   6  18
ATOM     18  O   UNL     1      -6.121   3.487 -21.866  0.00  0.00    -0.391 OA
ATOM     19  H   UNL     1      -5.875   2.861 -21.166  0.00  0.00    +0.210 HD
ENDBRANCH   6  18
TORSDOF 2
ENDMDL
MODEL 6
REMARK VINA RESULT:    -8.502      1.246      2.204
REMARK INTER + INTRA:          -9.247
REMARK INTER:                  -9.247
REMARK INTRA:                   0.000
REMARK UNBOUND:                 0.000
REMARK  Name = ZINC000004104719
REMARK  6 active torsions:
REMARK  status: ('A' for Active; 'I' for Inactive)
REMARK    1  A    between atoms: C_1  and  C_2
REMARK    2  A    between atoms: C_2  and  C_3
REMARK    3  A    between atoms: C_7  and  O_8
REMARK    4  A    between atoms: C_9  and  C_10
REMARK    5  A    between atoms: C_13  and  C_14
REMARK    6  A    between atoms: C_13  and  O_15
REMARK                            x       y       z     vdW  Elec       q    Type
REMARK                         _______ _______ _______ _____ _____    ______ ____
ROOT
ATOM      1  C   UNL     1       0.595   3.052 -24.330  0.00  0.00    +0.011 C 
ATOM      2  C   UNL     1      -0.690   3.252 -24.304  0.00  0.00    -0.028 C 
ATOM      3  C   UNL     1      -0.944   2.934 -23.069  0.00  0.00    -0.001 C 
ATOM      4  C   UNL     1      -1.007   2.582 -21.820  0.00  0.00    +0.007 C 
ATOM      5  C   UNL     1      -2.049   2.525 -21.045  0.00  0.00    +0.032 C 
ATOM      6  C   UNL     1      -3.286   2.807 -21.329  0.00  0.00    +0.121 C 
ATOM      7  C   UNL     1      -3.786   3.215 -22.457  0.00  0.00    -0.000 C 
ATOM      8  C   UNL     1      -5.049   3.469 -22.631  0.00  0.00    +0.012 C 
ATOM      9  C   UNL     1      -5.215   3.853 -23.862  0.00  0.00    +0.035 C 
ATOM     10  C   UNL     1      -4.056   3.837 -24.449  0.00  0.00    +0.067 C 
ATOM     11  C   UNL     1      -4.727   4.246 -25.485  0.00  0.00    +0.041 C 
ATOM     12  C   UNL     1      -4.590   3.052 -21.450  0.00  0.00    +0.014 C 
ATOM     13  C   UNL     1      -3.172   3.442 -23.581  0.00  0.00    +0.033 C 
ATOM     14  C   UNL     1      -0.882   3.639 -25.530  0.00  0.00    +0.011 C 
ATOM     15  C   UNL     1      -1.907   3.317 -23.853  0.00  0.00    +0.005 C 
ENDROOT
BRANCH  10  16
ATOM     16  O   UNL     1      -3.036   3.906 -25.253  0.00  0.00    -0.389 OA
ATOM     17  H   UNL     1      -2.553   3.065 -25.233  0.00  0.00    +0.210 HD
ENDBRANCH  10  16
BRANCH   6  18
ATOM     18  O   UNL     1      -4.135   2.661 -20.355  0.00  0.00    -0.391 OA
ATOM     19  H   UNL     1      -4.651   3.477 -20.252  0.00  0.00    +0.210 HD
ENDBRANCH   6  18
TORSDOF 2
ENDMDL
MODEL 7
REMARK VINA RESULT:    -8.149      1.784      4.235
REMARK INTER + INTRA:          -8.864
REMARK INTER:                  -8.864
REMARK INTRA:                   0.000
REMARK UNBOUND:                 0.000
REMARK  Name = ZINC000004104719
REMARK  6 active torsions:
REMARK  status: ('A' for Active; 'I' for Inactive)
REMARK    1  A    between atoms: C_1  and  C_2
REMARK    2  A    between atoms: C_2  and  C_3
REMARK    3  A    between atoms: C_7  and  O_8
REMARK    4  A    between atoms: C_9  and  C_10
REMARK    5  A    between atoms: C_13  and  C_14
REMARK    6  A    between atoms: C_13  and  O_15
REMARK                            x       y       z     vdW  Elec       q    Type
REMARK                         _______ _______ _______ _____ _____    ______ ____
ROOT
ATOM      1  C   UNL     1      -4.340   3.746 -23.876  0.00  0.00    +0.011 C 
ATOM      2  C   UNL     1      -3.057   3.579 -24.011  0.00  0.00    -0.028 C 
ATOM      3  C   UNL     1      -2.791   2.962 -22.898  0.00  0.00    -0.001 C 
ATOM      4  C   UNL     1      -2.715   2.361 -21.748  0.00  0.00    +0.007 C 
ATOM      5  C   UNL     1      -1.667   1.867 -21.159  0.00  0.00    +0.032 C 
ATOM      6  C   UNL     1      -0.435   1.852 -21.576  0.00  0.00    +0.121 C 
ATOM      7  C   UNL     1       0.052   2.327 -22.683  0.00  0.00    -0.000 C 
ATOM      8  C   UNL     1       1.311   2.257 -23.000  0.00  0.00    +0.012 C 
ATOM      9  C   UNL     1       1.464   2.821 -24.162  0.00  0.00    +0.035 C 
ATOM     10  C   UNL     1       0.301   3.240 -24.562  0.00  0.00    +0.067 C 
ATOM     11  C   UNL     1       0.960   3.651 -25.605  0.00  0.00    +0.041 C 
ATOM     12  C   UNL     1       0.866   1.751 -21.849  0.00  0.00    +0.014 C 
ATOM     13  C   UNL     1      -0.572   2.935 -23.648  0.00  0.00    +0.033 C 
ATOM     14  C   UNL     1      -2.878   4.138 -25.171  0.00  0.00    +0.011 C 
ATOM     15  C   UNL     1      -1.837   3.217 -23.744  0.00  0.00    +0.005 C 
ENDROOT
BRANCH  10  16
ATOM     16  O   UNL     1      -0.725   3.745 -25.181  0.00  0.00    -0.389 OA
ATOM     17  H   UNL     1      -0.531   4.661 -25.433  0.00  0.00    +0.210 HD
ENDBRANCH  10  16
BRANCH   6  18
ATOM     18  O   UNL     1       0.423   1.287 -20.778  0.00  0.00    -0.391 OA
ATOM     19  H   UNL     1       0.287   0.326 -20.786  0.00  0.00    +0.210 HD
ENDBRANCH   6  18
TORSDOF 2
ENDMDL
MODEL 8
REMARK VINA RESULT:    -8.000      3.164      5.229
REMARK INTER + INTRA:          -8.702
REMARK INTER:                  -8.702
REMARK INTRA:                   0.000
REMARK UNBOUND:                 0.000
REMARK  Name = ZINC000004104719
REMARK  6 active torsions:
REMARK  status: ('A' for Active; 'I' for Inactive)
REMARK    1  A    between atoms: C_1  and  C_2
REMARK    2  A    between atoms: C_2  and  C_3
REMARK    3  A    between atoms: C_7  and  O_8
REMARK    4  A    between atoms: C_9  and  C_10
REMARK    5  A    between atoms: C_13  and  C_14
REMARK    6  A    between atoms: C_13  and  O_15
REMARK                            x       y       z     vdW  Elec       q    Type
REMARK                         _______ _______ _______ _____ _____    ______ ____
ROOT
ATOM      1  C   UNL     1      -2.790   2.273 -21.465  0.00  0.00    +0.011 C 
ATOM      2  C   UNL     1      -1.535   2.190 -21.799  0.00  0.00    -0.028 C 
ATOM      3  C   UNL     1      -1.332   3.402 -22.222  0.00  0.00    -0.001 C 
ATOM      4  C   UNL     1      -1.316   4.645 -22.600  0.00  0.00    +0.007 C 
ATOM      5  C   UNL     1      -0.326   5.330 -23.090  0.00  0.00    +0.032 C 
ATOM      6  C   UNL     1       0.893   4.941 -23.321  0.00  0.00    +0.121 C 
ATOM      7  C   UNL     1       1.423   3.772 -23.120  0.00  0.00    -0.000 C 
ATOM      8  C   UNL     1       2.663   3.491 -23.389  0.00  0.00    +0.012 C 
ATOM      9  C   UNL     1       2.870   2.246 -23.074  0.00  0.00    +0.035 C 
ATOM     10  C   UNL     1       1.759   1.758 -22.609  0.00  0.00    +0.067 C 
ATOM     11  C   UNL     1       2.453   0.666 -22.479  0.00  0.00    +0.041 C 
ATOM     12  C   UNL     1       2.172   4.710 -23.616  0.00  0.00    +0.014 C 
ATOM     13  C   UNL     1       0.864   2.701 -22.637  0.00  0.00    +0.033 C 
ATOM     14  C   UNL     1      -1.303   0.948 -21.491  0.00  0.00    +0.011 C 
ATOM     15  C   UNL     1      -0.362   2.536 -22.238  0.00  0.00    +0.005 C 
ENDROOT
BRANCH  10  16
ATOM     16  O   UNL     1       0.792   1.042 -22.117  0.00  0.00    -0.389 OA
ATOM     17  H   UNL     1       1.163   0.291 -21.629  0.00  0.00    +0.210 HD
ENDBRANCH  10  16
BRANCH   6  18
ATOM     18  O   UNL     1       1.688   5.842 -23.819  0.00  0.00    -0.391 OA
ATOM     19  H   UNL     1       1.974   5.567 -24.704  0.00  0.00    +0.210 HD
ENDBRANCH   6  18
TORSDOF 2
ENDMDL
MODEL 9
REMARK VINA RESULT:    -7.699      2.088      3.227
REMARK INTER + INTRA:          -8.374
REMARK INTER:                  -8.374
REMARK INTRA:                   0.000
REMARK UNBOUND:                 0.000
REMARK  Name = ZINC000004104719
REMARK  6 active torsions:
REMARK  status: ('A' for Active; 'I' for Inactive)
REMARK    1  A    between atoms: C_1  and  C_2
REMARK    2  A    between atoms: C_2  and  C_3
REMARK    3  A    between atoms: C_7  and  O_8
REMARK    4  A    between atoms: C_9  and  C_10
REMARK    5  A    between atoms: C_13  and  C_14
REMARK    6  A    between atoms: C_13  and  O_15
REMARK                            x       y       z     vdW  Elec       q    Type
REMARK                         _______ _______ _______ _____ _____    ______ ____
ROOT
ATOM      1  C   UNL     1       2.791   1.233 -21.189  0.00  0.00    +0.011 C 
ATOM      2  C   UNL     1       2.109   1.821 -22.128  0.00  0.00    -0.028 C 
ATOM      3  C   UNL     1       0.907   1.688 -21.652  0.00  0.00    -0.001 C 
ATOM      4  C   UNL     1      -0.210   1.465 -21.026  0.00  0.00    +0.007 C 
ATOM      5  C   UNL     1      -1.417   1.790 -21.383  0.00  0.00    +0.032 C 
ATOM      6  C   UNL     1      -1.805   2.418 -22.453  0.00  0.00    +0.121 C 
ATOM      7  C   UNL     1      -1.082   2.877 -23.430  0.00  0.00    -0.000 C 
ATOM      8  C   UNL     1      -1.579   3.495 -24.460  0.00  0.00    +0.012 C 
ATOM      9  C   UNL     1      -0.595   3.821 -25.246  0.00  0.00    +0.035 C 
ATOM     10  C   UNL     1       0.510   3.404 -24.702  0.00  0.00    +0.067 C 
ATOM     11  C   UNL     1       1.065   3.924 -25.757  0.00  0.00    +0.041 C 
ATOM     12  C   UNL     1      -2.369   3.045 -23.485  0.00  0.00    +0.014 C 
ATOM     13  C   UNL     1       0.209   2.821 -23.580  0.00  0.00    +0.033 C 
ATOM     14  C   UNL     1       3.076   2.157 -22.930  0.00  0.00    +0.011 C 
ATOM     15  C   UNL     1       1.094   2.292 -22.788  0.00  0.00    +0.005 C 
ENDROOT
BRANCH  10  16
ATOM     16  O   UNL     1       1.731   3.096 -24.378  0.00  0.00    -0.389 OA
ATOM     17  H   UNL     1       2.136   2.586 -25.096  0.00  0.00    +0.210 HD
ENDBRANCH  10  16
BRANCH   6  18
ATOM     18  O   UNL     1      -3.086   2.613 -22.559  0.00  0.00    -0.391 OA
ATOM     19  H   UNL     1      -3.545   1.758 -22.557  0.00  0.00    +0.210 HD
ENDBRANCH   6  18
TORSDOF 2
ENDMDL
