MODEL 1
REMARK VINA RESULT:    -9.778      0.000      0.000
REMARK INTER + INTRA:         -10.063
REMARK INTER:                 -10.063
REMARK INTRA:                   0.000
REMARK UNBOUND:                 0.000
REMARK  Name = ZINC000004104717
REMARK  5 active torsions:
REMARK  status: ('A' for Active; 'I' for Inactive)
REMARK    1  A    between atoms: C_1  and  C_2
REMARK    2  A    between atoms: C_2  and  C_3
REMARK    3  A    between atoms: C_9  and  C_10
REMARK    4  A    between atoms: C_13  and  C_14
REMARK    5  A    between atoms: C_13  and  O_15
REMARK                            x       y       z     vdW  Elec       q    Type
REMARK                         _______ _______ _______ _____ _____    ______ ____
ROOT
ATOM      1  C   UNL     1      -0.092   1.873 -21.386  0.00  0.00    +0.011 C 
ATOM      2  C   UNL     1      -0.884   2.279 -22.335  0.00  0.00    -0.028 C 
ATOM      3  C   UNL     1      -1.983   2.441 -21.659  0.00  0.00    -0.001 C 
ATOM      4  C   UNL     1      -2.978   2.543 -20.829  0.00  0.00    +0.012 C 
ATOM      5  C   UNL     1      -4.197   2.923 -21.069  0.00  0.00    +0.075 C 
ATOM      6  C   UNL     1      -4.723   3.294 -22.199  0.00  0.00    +0.140 C 
ATOM      7  C   UNL     1      -4.160   3.377 -23.367  0.00  0.00    +0.032 C 
ATOM      8  C   UNL     1      -4.785   3.763 -24.439  0.00  0.00    +0.017 C 
ATOM      9  C   UNL     1      -3.942   3.734 -25.428  0.00  0.00    +0.036 C 
ATOM     10  C   UNL     1      -2.795   3.330 -24.968  0.00  0.00    +0.067 C 
ATOM     11  C   UNL     1      -2.406   3.473 -26.200  0.00  0.00    +0.041 C 
ATOM     12  C   UNL     1      -5.414   3.697 -23.265  0.00  0.00    +0.019 C 
ATOM     13  C   UNL     1      -2.929   3.109 -23.694  0.00  0.00    +0.037 C 
ATOM     14  O   UNL     1      -5.980   3.626 -22.154  0.00  0.00    -0.297 OA
ATOM     15  C   UNL     1      -0.060   2.259 -23.340  0.00  0.00    +0.011 C 
ATOM     16  C   UNL     1      -1.961   2.693 -22.934  0.00  0.00    +0.005 C 
ENDROOT
BRANCH  10  17
ATOM     17  O   UNL     1      -1.567   2.956 -24.766  0.00  0.00    -0.389 OA
ATOM     18  H   UNL     1      -1.024   3.206 -25.529  0.00  0.00    +0.210 HD
ENDBRANCH  10  17
TORSDOF 1
ENDMDL
MODEL 2
REMARK VINA RESULT:    -9.708      1.440      3.082
REMARK INTER + INTRA:          -9.992
REMARK INTER:                  -9.992
REMARK INTRA:                   0.000
REMARK UNBOUND:                 0.000
REMARK  Name = ZINC000004104717
REMARK  5 active torsions:
REMARK  status: ('A' for Active; 'I' for Inactive)
REMARK    1  A    between atoms: C_1  and  C_2
REMARK    2  A    between atoms: C_2  and  C_3
REMARK    3  A    between atoms: C_9  and  C_10
REMARK    4  A    between atoms: C_13  and  C_14
REMARK    5  A    between atoms: C_13  and  O_15
REMARK                            x       y       z     vdW  Elec       q    Type
REMARK                         _______ _______ _______ _____ _____    ______ ____
ROOT
ATOM      1  C   UNL     1       0.471   2.246 -23.271  0.00  0.00    +0.011 C 
ATOM      2  C   UNL     1      -0.766   2.404 -22.900  0.00  0.00    -0.028 C 
ATOM      3  C   UNL     1      -1.247   2.985 -23.958  0.00  0.00    -0.001 C 
ATOM      4  C   UNL     1      -1.549   3.551 -25.088  0.00  0.00    +0.012 C 
ATOM      5  C   UNL     1      -2.697   4.016 -25.480  0.00  0.00    +0.075 C 
ATOM      6  C   UNL     1      -3.828   4.031 -24.839  0.00  0.00    +0.140 C 
ATOM      7  C   UNL     1      -4.089   3.583 -23.647  0.00  0.00    +0.032 C 
ATOM      8  C   UNL     1      -5.266   3.650 -23.099  0.00  0.00    +0.017 C 
ATOM      9  C   UNL     1      -5.188   3.118 -21.914  0.00  0.00    +0.036 C 
ATOM     10  C   UNL     1      -3.963   2.723 -21.731  0.00  0.00    +0.067 C 
ATOM     11  C   UNL     1      -4.407   2.337 -20.571  0.00  0.00    +0.041 C 
ATOM     12  C   UNL     1      -5.055   4.126 -24.326  0.00  0.00    +0.019 C 
ATOM     13  C   UNL     1      -3.284   3.011 -22.801  0.00  0.00    +0.037 C 
ATOM     14  O   UNL     1      -4.830   4.563 -25.474  0.00  0.00    -0.297 OA
ATOM     15  C   UNL     1      -0.713   1.877 -21.712  0.00  0.00    +0.011 C 
ATOM     16  C   UNL     1      -2.019   2.744 -22.940  0.00  0.00    +0.005 C 
ENDROOT
BRANCH  10  17
ATOM     17  O   UNL     1      -2.831   2.247 -21.305  0.00  0.00    -0.389 OA
ATOM     18  H   UNL     1      -2.869   2.138 -20.342  0.00  0.00    +0.210 HD
ENDBRANCH  10  17
TORSDOF 1
ENDMDL
MODEL 3
REMARK VINA RESULT:    -9.329      1.227      4.312
REMARK INTER + INTRA:          -9.602
REMARK INTER:                  -9.602
REMARK INTRA:                   0.000
REMARK UNBOUND:                 0.000
REMARK  Name = ZINC000004104717
REMARK  5 active torsions:
REMARK  status: ('A' for Active; 'I' for Inactive)
REMARK    1  A    between atoms: C_1  and  C_2
REMARK    2  A    between atoms: C_2  and  C_3
REMARK    3  A    between atoms: C_9  and  C_10
REMARK    4  A    between atoms: C_13  and  C_14
REMARK    5  A    between atoms: C_13  and  O_15
REMARK                            x       y       z     vdW  Elec       q    Type
REMARK                         _______ _______ _______ _____ _____    ______ ____
ROOT
ATOM      1  C   UNL     1      -3.306   3.752 -26.839  0.00  0.00    +0.011 C 
ATOM      2  C   UNL     1      -3.548   3.560 -25.575  0.00  0.00    -0.028 C 
ATOM      3  C   UNL     1      -2.346   3.310 -25.149  0.00  0.00    -0.001 C 
ATOM      4  C   UNL     1      -1.089   3.085 -24.908  0.00  0.00    +0.012 C 
ATOM      5  C   UNL     1      -0.520   2.799 -23.775  0.00  0.00    +0.075 C 
ATOM      6  C   UNL     1      -1.067   2.668 -22.604  0.00  0.00    +0.140 C 
ATOM      7  C   UNL     1      -2.319   2.789 -22.275  0.00  0.00    +0.032 C 
ATOM      8  C   UNL     1      -2.760   2.635 -21.062  0.00  0.00    +0.017 C 
ATOM      9  C   UNL     1      -4.047   2.823 -21.076  0.00  0.00    +0.036 C 
ATOM     10  C   UNL     1      -4.401   3.093 -22.297  0.00  0.00    +0.067 C 
ATOM     11  C   UNL     1      -5.594   3.174 -21.787  0.00  0.00    +0.041 C 
ATOM     12  C   UNL     1      -1.463   2.498 -21.342  0.00  0.00    +0.019 C 
ATOM     13  C   UNL     1      -3.333   3.073 -23.038  0.00  0.00    +0.037 C 
ATOM     14  O   UNL     1      -0.255   2.376 -21.631  0.00  0.00    -0.297 OA
ATOM     15  C   UNL     1      -4.836   3.743 -25.564  0.00  0.00    +0.011 C 
ATOM     16  C   UNL     1      -3.345   3.304 -24.318  0.00  0.00    +0.005 C 
ENDROOT
BRANCH  10  17
ATOM     17  O   UNL     1      -5.005   3.381 -23.412  0.00  0.00    -0.389 OA
ATOM     18  H   UNL     1      -4.474   4.020 -23.911  0.00  0.00    +0.210 HD
ENDBRANCH  10  17
TORSDOF 1
ENDMDL
MODEL 4
REMARK VINA RESULT:    -9.271      1.149      3.479
REMARK INTER + INTRA:          -9.542
REMARK INTER:                  -9.542
REMARK INTRA:                   0.000
REMARK UNBOUND:                 0.000
REMARK  Name = ZINC000004104717
REMARK  5 active torsions:
REMARK  status: ('A' for Active; 'I' for Inactive)
REMARK    1  A    between atoms: C_1  and  C_2
REMARK    2  A    between atoms: C_2  and  C_3
REMARK    3  A    between atoms: C_9  and  C_10
REMARK    4  A    between atoms: C_13  and  C_14
REMARK    5  A    between atoms: C_13  and  O_15
REMARK                            x       y       z     vdW  Elec       q    Type
REMARK                         _______ _______ _______ _____ _____    ______ ____
ROOT
ATOM      1  C   UNL     1      -4.103   2.442 -20.166  0.00  0.00    +0.011 C 
ATOM      2  C   UNL     1      -3.952   2.750 -21.420  0.00  0.00    -0.028 C 
ATOM      3  C   UNL     1      -2.667   2.590 -21.539  0.00  0.00    -0.001 C 
ATOM      4  C   UNL     1      -1.387   2.381 -21.470  0.00  0.00    +0.012 C 
ATOM      5  C   UNL     1      -0.495   2.495 -22.409  0.00  0.00    +0.075 C 
ATOM      6  C   UNL     1      -0.664   2.847 -23.649  0.00  0.00    +0.140 C 
ATOM      7  C   UNL     1      -1.767   3.171 -24.256  0.00  0.00    +0.032 C 
ATOM      8  C   UNL     1      -1.821   3.510 -25.510  0.00  0.00    +0.017 C 
ATOM      9  C   UNL     1      -3.061   3.771 -25.802  0.00  0.00    +0.036 C 
ATOM     10  C   UNL     1      -3.773   3.594 -24.729  0.00  0.00    +0.067 C 
ATOM     11  C   UNL     1      -4.764   3.944 -25.494  0.00  0.00    +0.041 C 
ATOM     12  C   UNL     1      -0.661   3.186 -24.938  0.00  0.00    +0.019 C 
ATOM     13  C   UNL     1      -2.973   3.224 -23.773  0.00  0.00    +0.037 C 
ATOM     14  O   UNL     1       0.412   2.879 -24.378  0.00  0.00    -0.297 OA
ATOM     15  C   UNL     1      -5.185   3.017 -21.736  0.00  0.00    +0.011 C 
ATOM     16  C   UNL     1      -3.374   2.965 -22.564  0.00  0.00    +0.005 C 
ENDROOT
BRANCH  10  17
ATOM     17  O   UNL     1      -4.692   3.491 -23.815  0.00  0.00    -0.389 OA
ATOM     18  H   UNL     1      -4.693   2.589 -23.459  0.00  0.00    +0.210 HD
ENDBRANCH  10  17
TORSDOF 1
ENDMDL
MODEL 5
REMARK VINA RESULT:    -9.196      0.721      3.378
REMARK INTER + INTRA:          -9.465
REMARK INTER:                  -9.465
REMARK INTRA:                   0.000
REMARK UNBOUND:                 0.000
REMARK  Name = ZINC000004104717
REMARK  5 active torsions:
REMARK  status: ('A' for Active; 'I' for Inactive)
REMARK    1  A    between atoms: C_1  and  C_2
REMARK    2  A    between atoms: C_2  and  C_3
REMARK    3  A    between atoms: C_9  and  C_10
REMARK    4  A    between atoms: C_13  and  C_14
REMARK    5  A    between atoms: C_13  and  O_15
REMARK                            x       y       z     vdW  Elec       q    Type
REMARK                         _______ _______ _______ _____ _____    ______ ____
ROOT
ATOM      1  C   UNL     1      -2.945   3.798 -26.981  0.00  0.00    +0.011 C 
ATOM      2  C   UNL     1      -2.650   3.542 -25.741  0.00  0.00    -0.028 C 
ATOM      3  C   UNL     1      -3.826   3.658 -25.199  0.00  0.00    -0.001 C 
ATOM      4  C   UNL     1      -5.064   3.816 -24.837  0.00  0.00    +0.012 C 
ATOM      5  C   UNL     1      -5.581   3.710 -23.650  0.00  0.00    +0.075 C 
ATOM      6  C   UNL     1      -4.987   3.421 -22.530  0.00  0.00    +0.140 C 
ATOM      7  C   UNL     1      -3.729   3.166 -22.322  0.00  0.00    +0.032 C 
ATOM      8  C   UNL     1      -3.239   2.887 -21.150  0.00  0.00    +0.017 C 
ATOM      9  C   UNL     1      -1.962   2.685 -21.288  0.00  0.00    +0.036 C 
ATOM     10  C   UNL     1      -1.662   2.840 -22.543  0.00  0.00    +0.067 C 
ATOM     11  C   UNL     1      -0.455   2.563 -22.148  0.00  0.00    +0.041 C 
ATOM     12  C   UNL     1      -4.539   3.140 -21.306  0.00  0.00    +0.019 C 
ATOM     13  C   UNL     1      -2.755   3.137 -23.182  0.00  0.00    +0.037 C 
ATOM     14  O   UNL     1      -5.752   3.382 -21.479  0.00  0.00    -0.297 OA
ATOM     15  C   UNL     1      -1.371   3.336 -25.852  0.00  0.00    +0.011 C 
ATOM     16  C   UNL     1      -2.797   3.357 -24.463  0.00  0.00    +0.005 C 
ENDROOT
BRANCH  10  17
ATOM     17  O   UNL     1      -1.111   2.937 -23.716  0.00  0.00    -0.389 OA
ATOM     18  H   UNL     1      -1.670   2.496 -24.373  0.00  0.00    +0.210 HD
ENDBRANCH  10  17
TORSDOF 1
ENDMDL
MODEL 6
REMARK VINA RESULT:    -9.118      1.247      4.123
REMARK INTER + INTRA:          -9.384
REMARK INTER:                  -9.384
REMARK INTRA:                   0.000
REMARK UNBOUND:                 0.000
REMARK  Name = ZINC000004104717
REMARK  5 active torsions:
REMARK  status: ('A' for Active; 'I' for Inactive)
REMARK    1  A    between atoms: C_1  and  C_2
REMARK    2  A    between atoms: C_2  and  C_3
REMARK    3  A    between atoms: C_9  and  C_10
REMARK    4  A    between atoms: C_13  and  C_14
REMARK    5  A    between atoms: C_13  and  O_15
REMARK                            x       y       z     vdW  Elec       q    Type
REMARK                         _______ _______ _______ _____ _____    ______ ____
ROOT
ATOM      1  C   UNL     1      -6.103   3.125 -21.742  0.00  0.00    +0.011 C 
ATOM      2  C   UNL     1      -4.834   2.962 -21.978  0.00  0.00    -0.028 C 
ATOM      3  C   UNL     1      -4.783   3.352 -23.217  0.00  0.00    -0.001 C 
ATOM      4  C   UNL     1      -4.923   3.773 -24.439  0.00  0.00    +0.012 C 
ATOM      5  C   UNL     1      -4.016   3.900 -25.361  0.00  0.00    +0.075 C 
ATOM      6  C   UNL     1      -2.745   3.638 -25.289  0.00  0.00    +0.140 C 
ATOM      7  C   UNL     1      -2.066   3.184 -24.277  0.00  0.00    +0.032 C 
ATOM      8  C   UNL     1      -0.787   2.955 -24.316  0.00  0.00    +0.017 C 
ATOM      9  C   UNL     1      -0.423   2.510 -23.150  0.00  0.00    +0.036 C 
ATOM     10  C   UNL     1      -1.477   2.463 -22.390  0.00  0.00    +0.067 C 
ATOM     11  C   UNL     1      -0.644   2.018 -21.497  0.00  0.00    +0.041 C 
ATOM     12  C   UNL     1      -1.433   3.422 -25.386  0.00  0.00    +0.019 C 
ATOM     13  C   UNL     1      -2.493   2.879 -23.087  0.00  0.00    +0.037 C 
ATOM     14  O   UNL     1      -2.061   3.859 -26.373  0.00  0.00    -0.297 OA
ATOM     15  C   UNL     1      -4.446   2.515 -20.820  0.00  0.00    +0.011 C 
ATOM     16  C   UNL     1      -3.702   2.954 -22.615  0.00  0.00    +0.005 C 
ENDROOT
BRANCH  10  17
ATOM     17  O   UNL     1      -2.357   2.323 -21.443  0.00  0.00    -0.389 OA
ATOM     18  H   UNL     1      -3.246   2.457 -21.807  0.00  0.00    +0.210 HD
ENDBRANCH  10  17
TORSDOF 1
ENDMDL
MODEL 7
REMARK VINA RESULT:    -9.049      1.452      2.643
REMARK INTER + INTRA:          -9.314
REMARK INTER:                  -9.314
REMARK INTRA:                   0.000
REMARK UNBOUND:                 0.000
REMARK  Name = ZINC000004104717
REMARK  5 active torsions:
REMARK  status: ('A' for Active; 'I' for Inactive)
REMARK    1  A    between atoms: C_1  and  C_2
REMARK    2  A    between atoms: C_2  and  C_3
REMARK    3  A    between atoms: C_9  and  C_10
REMARK    4  A    between atoms: C_13  and  C_14
REMARK    5  A    between atoms: C_13  and  O_15
REMARK                            x       y       z     vdW  Elec       q    Type
REMARK                         _______ _______ _______ _____ _____    ______ ____
ROOT
ATOM      1  C   UNL     1      -3.515   3.155 -19.956  0.00  0.00    +0.011 C 
ATOM      2  C   UNL     1      -2.961   3.206 -21.131  0.00  0.00    -0.028 C 
ATOM      3  C   UNL     1      -4.010   3.424 -21.867  0.00  0.00    -0.001 C 
ATOM      4  C   UNL     1      -5.159   3.637 -22.436  0.00  0.00    +0.012 C 
ATOM      5  C   UNL     1      -5.420   3.805 -23.698  0.00  0.00    +0.075 C 
ATOM      6  C   UNL     1      -4.595   3.802 -24.703  0.00  0.00    +0.140 C 
ATOM      7  C   UNL     1      -3.307   3.630 -24.694  0.00  0.00    +0.032 C 
ATOM      8  C   UNL     1      -2.575   3.647 -25.768  0.00  0.00    +0.017 C 
ATOM      9  C   UNL     1      -1.340   3.445 -25.415  0.00  0.00    +0.036 C 
ATOM     10  C   UNL     1      -1.308   3.304 -24.123  0.00  0.00    +0.067 C 
ATOM     11  C   UNL     1      -0.030   3.154 -24.308  0.00  0.00    +0.041 C 
ATOM     12  C   UNL     1      -3.894   3.829 -25.836  0.00  0.00    +0.019 C 
ATOM     13  C   UNL     1      -2.524   3.418 -23.678  0.00  0.00    +0.037 C 
ATOM     14  O   UNL     1      -5.130   3.998 -25.872  0.00  0.00    -0.297 OA
ATOM     15  C   UNL     1      -1.719   3.006 -20.803  0.00  0.00    +0.011 C 
ATOM     16  C   UNL     1      -2.837   3.326 -22.419  0.00  0.00    +0.005 C 
ENDROOT
BRANCH  10  17
ATOM     17  O   UNL     1      -1.010   3.131 -22.870  0.00  0.00    -0.389 OA
ATOM     18  H   UNL     1      -0.461   2.338 -22.775  0.00  0.00    +0.210 HD
ENDBRANCH  10  17
TORSDOF 1
ENDMDL
MODEL 8
REMARK VINA RESULT:    -8.989      1.199      2.035
REMARK INTER + INTRA:          -9.252
REMARK INTER:                  -9.252
REMARK INTRA:                   0.000
REMARK UNBOUND:                 0.000
REMARK  Name = ZINC000004104717
REMARK  5 active torsions:
REMARK  status: ('A' for Active; 'I' for Inactive)
REMARK    1  A    between atoms: C_1  and  C_2
REMARK    2  A    between atoms: C_2  and  C_3
REMARK    3  A    between atoms: C_9  and  C_10
REMARK    4  A    between atoms: C_13  and  C_14
REMARK    5  A    between atoms: C_13  and  O_15
REMARK                            x       y       z     vdW  Elec       q    Type
REMARK                         _______ _______ _______ _____ _____    ______ ____
ROOT
ATOM      1  C   UNL     1       0.615   3.015 -24.316  0.00  0.00    +0.011 C 
ATOM      2  C   UNL     1      -0.671   3.215 -24.309  0.00  0.00    -0.028 C 
ATOM      3  C   UNL     1      -0.944   2.887 -23.081  0.00  0.00    -0.001 C 
ATOM      4  C   UNL     1      -1.027   2.525 -21.836  0.00  0.00    +0.012 C 
ATOM      5  C   UNL     1      -2.082   2.462 -21.079  0.00  0.00    +0.075 C 
ATOM      6  C   UNL     1      -3.314   2.746 -21.381  0.00  0.00    +0.140 C 
ATOM      7  C   UNL     1      -3.796   3.164 -22.513  0.00  0.00    +0.032 C 
ATOM      8  C   UNL     1      -5.056   3.419 -22.705  0.00  0.00    +0.017 C 
ATOM      9  C   UNL     1      -5.203   3.814 -23.936  0.00  0.00    +0.036 C 
ATOM     10  C   UNL     1      -4.034   3.801 -24.504  0.00  0.00    +0.067 C 
ATOM     11  C   UNL     1      -4.689   4.219 -25.547  0.00  0.00    +0.041 C 
ATOM     12  C   UNL     1      -4.617   2.993 -21.520  0.00  0.00    +0.019 C 
ATOM     13  C   UNL     1      -3.164   3.400 -23.625  0.00  0.00    +0.037 C 
ATOM     14  O   UNL     1      -4.179   2.593 -20.422  0.00  0.00    -0.297 OA
ATOM     15  C   UNL     1      -0.843   3.612 -25.535  0.00  0.00    +0.011 C 
ATOM     16  C   UNL     1      -1.895   3.277 -23.878  0.00  0.00    +0.005 C 
ENDROOT
BRANCH  10  17
ATOM     17  O   UNL     1      -3.001   3.877 -25.291  0.00  0.00    -0.389 OA
ATOM     18  H   UNL     1      -3.224   4.416 -26.065  0.00  0.00    +0.210 HD
ENDBRANCH  10  17
TORSDOF 1
ENDMDL
MODEL 9
REMARK VINA RESULT:    -8.441      1.658      4.913
REMARK INTER + INTRA:          -8.688
REMARK INTER:                  -8.688
REMARK INTRA:                   0.000
REMARK UNBOUND:                 0.000
REMARK  Name = ZINC000004104717
REMARK  5 active torsions:
REMARK  status: ('A' for Active; 'I' for Inactive)
REMARK    1  A    between atoms: C_1  and  C_2
REMARK    2  A    between atoms: C_2  and  C_3
REMARK    3  A    between atoms: C_9  and  C_10
REMARK    4  A    between atoms: C_13  and  C_14
REMARK    5  A    between atoms: C_13  and  O_15
REMARK                            x       y       z     vdW  Elec       q    Type
REMARK                         _______ _______ _______ _____ _____    ______ ____
ROOT
ATOM      1  C   UNL     1      -4.510   3.374 -22.771  0.00  0.00    +0.011 C 
ATOM      2  C   UNL     1      -3.275   3.023 -22.566  0.00  0.00    -0.028 C 
ATOM      3  C   UNL     1      -2.751   3.359 -23.707  0.00  0.00    -0.001 C 
ATOM      4  C   UNL     1      -2.407   3.754 -24.897  0.00  0.00    +0.012 C 
ATOM      5  C   UNL     1      -1.233   3.718 -25.454  0.00  0.00    +0.075 C 
ATOM      6  C   UNL     1      -0.114   3.277 -24.960  0.00  0.00    +0.140 C 
ATOM      7  C   UNL     1       0.108   2.765 -23.787  0.00  0.00    +0.032 C 
ATOM      8  C   UNL     1       1.277   2.353 -23.393  0.00  0.00    +0.017 C 
ATOM      9  C   UNL     1       1.156   1.900 -22.180  0.00  0.00    +0.036 C 
ATOM     10  C   UNL     1      -0.088   2.032 -21.824  0.00  0.00    +0.067 C 
ATOM     11  C   UNL     1       0.319   1.502 -20.709  0.00  0.00    +0.041 C 
ATOM     12  C   UNL     1       1.106   2.872 -24.610  0.00  0.00    +0.019 C 
ATOM     13  C   UNL     1      -0.735   2.566 -22.816  0.00  0.00    +0.037 C 
ATOM     14  O   UNL     1       0.920   3.361 -25.744  0.00  0.00    -0.297 OA
ATOM     15  C   UNL     1      -3.370   2.564 -21.353  0.00  0.00    +0.011 C 
ATOM     16  C   UNL     1      -2.008   2.830 -22.781  0.00  0.00    +0.005 C 
ENDROOT
BRANCH  10  17
ATOM     17  O   UNL     1      -1.246   2.052 -21.234  0.00  0.00    -0.389 OA
ATOM     18  H   UNL     1      -1.142   2.384 -20.329  0.00  0.00    +0.210 HD
ENDBRANCH  10  17
TORSDOF 1
ENDMDL
