MODEL 1
REMARK VINA RESULT:    -7.997      0.000      0.000
REMARK INTER + INTRA:         -11.352
REMARK INTER:                 -10.924
REMARK INTRA:                  -0.427
REMARK UNBOUND:                -0.550
REMARK  Name = ZINC000016997581
REMARK  7 active torsions:
REMARK  status: ('A' for Active; 'I' for Inactive)
REMARK    1  A    between atoms: C_1  and  O_2
REMARK    2  A    between atoms: O_2  and  C_3
REMARK    3  A    between atoms: C_3  and  C_5
REMARK    4  A    between atoms: C_5  and  C_6
REMARK    5  A    between atoms: C_5  and  N_12
REMARK    6  A    between atoms: C_6  and  C_7
REMARK    7  A    between atoms: C_13  and  C_15
REMARK                            x       y       z     vdW  Elec       q    Type
REMARK                         _______ _______ _______ _____ _____    ______ ____
ROOT
ATOM      1  C   UNL     1       0.542   2.612 -22.744  0.00  0.00    +0.188 C 
ENDROOT
BRANCH   1   2
ATOM      2  N   UNL     1      -0.677   2.906 -22.400  0.00  0.00    -0.298 N 
ATOM      3  H   UNL     1      -0.848   3.395 -21.563  0.00  0.00    +0.150 HD
ATOM      4  C   UNL     1      -1.669   2.556 -23.163  0.00  0.00    +0.245 C 
ATOM      5  O   UNL     1      -1.443   1.911 -24.268  0.00  0.00    -0.270 OA
BRANCH   4   6
ATOM      6  C   UNL     1      -2.888   2.849 -22.820  0.00  0.00    +0.037 A 
ATOM      7  C   UNL     1      -3.679   3.438 -23.665  0.00  0.00    +0.013 A 
ATOM      8  C   UNL     1      -4.898   3.732 -23.324  0.00  0.00    +0.001 A 
ATOM      9  C   UNL     1      -5.328   3.435 -22.130  0.00  0.00    +0.000 A 
ATOM     10  C   UNL     1      -4.536   2.846 -21.285  0.00  0.00    +0.001 A 
ATOM     11  C   UNL     1      -3.317   2.552 -21.626  0.00  0.00    +0.013 A 
ENDBRANCH   4   6
ENDBRANCH   1   2
BRANCH   1  12
ATOM     12  C   UNL     1       1.166   1.635 -22.154  0.00  0.00    +0.328 C 
ATOM     13  O   UNL     1       1.092   1.503 -20.863  0.00  0.00    -0.249 OA
BRANCH  12  15
ATOM     14  C   UNL     1       3.032   0.408 -22.437  0.00  0.00    +0.280 C 
ATOM     15  O   UNL     1       1.863   0.792 -22.856  0.00  0.00    -0.467 OA
ENDBRANCH  12  15
ENDBRANCH   1  12
BRANCH   1  16
ATOM     16  C   UNL     1       1.138   3.294 -23.676  0.00  0.00    +0.088 C 
BRANCH  16  17
ATOM     17  C   UNL     1       1.986   4.225 -23.360  0.00  0.00    +0.038 A 
ATOM     18  C   UNL     1       3.256   4.060 -23.139  0.00  0.00    +0.133 A 
ATOM     19  N   UNL     1       3.770   5.218 -22.851  0.00  0.00    -0.244 NA
ATOM     20  C   UNL     1       2.816   6.101 -22.893  0.00  0.00    +0.196 A 
ATOM     21  N   UNL     1       1.715   5.487 -23.208  0.00  0.00    -0.348 N 
ATOM     22  H   UNL     1       0.830   5.905 -23.313  0.00  0.00    +0.166 HD
ENDBRANCH  16  17
ENDBRANCH   1  16
TORSDOF 6
ENDMDL
MODEL 2
REMARK VINA RESULT:    -7.830      1.072      1.525
REMARK INTER + INTRA:         -11.126
REMARK INTER:                 -10.808
REMARK INTRA:                  -0.319
REMARK UNBOUND:                -0.550
REMARK  Name = ZINC000016997581
REMARK  7 active torsions:
REMARK  status: ('A' for Active; 'I' for Inactive)
REMARK    1  A    between atoms: C_1  and  O_2
REMARK    2  A    between atoms: O_2  and  C_3
REMARK    3  A    between atoms: C_3  and  C_5
REMARK    4  A    between atoms: C_5  and  C_6
REMARK    5  A    between atoms: C_5  and  N_12
REMARK    6  A    between atoms: C_6  and  C_7
REMARK    7  A    between atoms: C_13  and  C_15
REMARK                            x       y       z     vdW  Elec       q    Type
REMARK                         _______ _______ _______ _____ _____    ______ ____
ROOT
ATOM      1  C   UNL     1       0.521   2.717 -23.658  0.00  0.00    +0.188 C 
ENDROOT
BRANCH   1   2
ATOM      2  N   UNL     1      -0.771   2.753 -23.789  0.00  0.00    -0.298 N 
ATOM      3  H   UNL     1      -1.231   2.067 -24.324  0.00  0.00    +0.150 HD
ATOM      4  C   UNL     1      -1.457   3.696 -23.213  0.00  0.00    +0.245 C 
ATOM      5  O   UNL     1      -0.849   4.602 -22.507  0.00  0.00    -0.270 OA
BRANCH   4   6
ATOM      6  C   UNL     1      -2.749   3.733 -23.344  0.00  0.00    +0.037 A 
ATOM      7  C   UNL     1      -3.515   3.369 -22.360  0.00  0.00    +0.013 A 
ATOM      8  C   UNL     1      -4.807   3.406 -22.489  0.00  0.00    +0.001 A 
ATOM      9  C   UNL     1      -5.336   3.809 -23.609  0.00  0.00    +0.000 A 
ATOM     10  C   UNL     1      -4.570   4.173 -24.593  0.00  0.00    +0.001 A 
ATOM     11  C   UNL     1      -3.278   4.136 -24.464  0.00  0.00    +0.013 A 
ENDBRANCH   4   6
ENDBRANCH   1   2
BRANCH   1  12
ATOM     12  C   UNL     1       1.067   1.891 -22.814  0.00  0.00    +0.328 C 
ATOM     13  O   UNL     1       0.795   1.984 -21.546  0.00  0.00    -0.249 OA
BRANCH  12  15
ATOM     14  C   UNL     1       2.775   0.475 -22.436  0.00  0.00    +0.280 C 
ATOM     15  O   UNL     1       1.883   0.973 -23.239  0.00  0.00    -0.467 OA
ENDBRANCH  12  15
ENDBRANCH   1  12
BRANCH   1  16
ATOM     16  C   UNL     1       1.270   3.507 -24.369  0.00  0.00    +0.088 C 
BRANCH  16  17
ATOM     17  C   UNL     1       2.075   4.340 -23.784  0.00  0.00    +0.038 A 
ATOM     18  C   UNL     1       3.307   4.103 -23.441  0.00  0.00    +0.133 A 
ATOM     19  N   UNL     1       3.785   5.175 -22.883  0.00  0.00    -0.244 NA
ATOM     20  C   UNL     1       2.847   6.077 -22.880  0.00  0.00    +0.196 A 
ATOM     21  N   UNL     1       1.792   5.561 -23.437  0.00  0.00    -0.348 N 
ATOM     22  H   UNL     1       0.930   6.015 -23.572  0.00  0.00    +0.166 HD
ENDBRANCH  16  17
ENDBRANCH   1  16
TORSDOF 6
ENDMDL
MODEL 3
REMARK VINA RESULT:    -7.787      2.000      3.011
REMARK INTER + INTRA:         -11.069
REMARK INTER:                 -10.536
REMARK INTRA:                  -0.533
REMARK UNBOUND:                -0.550
REMARK  Name = ZINC000016997581
REMARK  7 active torsions:
REMARK  status: ('A' for Active; 'I' for Inactive)
REMARK    1  A    between atoms: C_1  and  O_2
REMARK    2  A    between atoms: O_2  and  C_3
REMARK    3  A    between atoms: C_3  and  C_5
REMARK    4  A    between atoms: C_5  and  C_6
REMARK    5  A    between atoms: C_5  and  N_12
REMARK    6  A    between atoms: C_6  and  C_7
REMARK    7  A    between atoms: C_13  and  C_15
REMARK                            x       y       z     vdW  Elec       q    Type
REMARK                         _______ _______ _______ _____ _____    ______ ____
ROOT
ATOM      1  C   UNL     1       0.329   3.312 -23.650  0.00  0.00    +0.188 C 
ENDROOT
BRANCH   1   2
ATOM      2  N   UNL     1      -0.842   3.413 -23.096  0.00  0.00    -0.298 N 
ATOM      3  H   UNL     1      -0.922   3.736 -22.170  0.00  0.00    +0.150 HD
ATOM      4  C   UNL     1      -1.908   3.088 -23.765  0.00  0.00    +0.245 C 
ATOM      5  O   UNL     1      -1.803   2.661 -24.988  0.00  0.00    -0.270 OA
BRANCH   4   6
ATOM      6  C   UNL     1      -3.080   3.188 -23.211  0.00  0.00    +0.037 A 
ATOM      7  C   UNL     1      -4.080   3.670 -23.885  0.00  0.00    +0.013 A 
ATOM      8  C   UNL     1      -5.252   3.771 -23.334  0.00  0.00    +0.001 A 
ATOM      9  C   UNL     1      -5.424   3.389 -22.100  0.00  0.00    +0.000 A 
ATOM     10  C   UNL     1      -4.423   2.907 -21.426  0.00  0.00    +0.001 A 
ATOM     11  C   UNL     1      -3.251   2.806 -21.978  0.00  0.00    +0.013 A 
ENDBRANCH   4   6
ENDBRANCH   1   2
BRANCH   1  12
ATOM     12  C   UNL     1       0.836   4.325 -24.288  0.00  0.00    +0.328 C 
ATOM     13  O   UNL     1       1.002   4.265 -25.576  0.00  0.00    -0.249 OA
BRANCH  12  15
ATOM     14  C   UNL     1       2.393   5.529 -23.194  0.00  0.00    +0.280 C 
ATOM     15  O   UNL     1       1.178   5.397 -23.637  0.00  0.00    -0.467 OA
ENDBRANCH  12  15
ENDBRANCH   1  12
BRANCH   1  16
ATOM     16  C   UNL     1       0.993   2.197 -23.568  0.00  0.00    +0.088 C 
BRANCH  16  17
ATOM     17  C   UNL     1       1.618   1.892 -22.471  0.00  0.00    +0.038 A 
ATOM     18  C   UNL     1       1.071   1.464 -21.373  0.00  0.00    +0.133 A 
ATOM     19  N   UNL     1       2.014   1.268 -20.501  0.00  0.00    -0.244 NA
ATOM     20  C   UNL     1       3.147   1.577 -21.061  0.00  0.00    +0.196 A 
ATOM     21  N   UNL     1       2.901   1.962 -22.277  0.00  0.00    -0.348 N 
ATOM     22  H   UNL     1       3.570   2.255 -22.937  0.00  0.00    +0.166 HD
ENDBRANCH  16  17
ENDBRANCH   1  16
TORSDOF 6
ENDMDL
MODEL 4
REMARK VINA RESULT:    -7.284      2.283      3.479
REMARK INTER + INTRA:         -10.389
REMARK INTER:                 -10.119
REMARK INTRA:                  -0.271
REMARK UNBOUND:                -0.550
REMARK  Name = ZINC000016997581
REMARK  7 active torsions:
REMARK  status: ('A' for Active; 'I' for Inactive)
REMARK    1  A    between atoms: C_1  and  O_2
REMARK    2  A    between atoms: O_2  and  C_3
REMARK    3  A    between atoms: C_3  and  C_5
REMARK    4  A    between atoms: C_5  and  C_6
REMARK    5  A    between atoms: C_5  and  N_12
REMARK    6  A    between atoms: C_6  and  C_7
REMARK    7  A    between atoms: C_13  and  C_15
REMARK                            x       y       z     vdW  Elec       q    Type
REMARK                         _______ _______ _______ _____ _____    ______ ____
ROOT
ATOM      1  C   UNL     1       0.707   2.635 -23.313  0.00  0.00    +0.188 C 
ENDROOT
BRANCH   1   2
ATOM      2  N   UNL     1      -0.411   2.621 -23.975  0.00  0.00    -0.298 N 
ATOM      3  H   UNL     1      -0.607   1.883 -24.596  0.00  0.00    +0.150 HD
ATOM      4  C   UNL     1      -1.271   3.584 -23.818  0.00  0.00    +0.245 C 
ATOM      5  O   UNL     1      -1.012   4.559 -22.998  0.00  0.00    -0.270 OA
BRANCH   4   6
ATOM      6  C   UNL     1      -2.389   3.572 -24.480  0.00  0.00    +0.037 A 
ATOM      7  C   UNL     1      -3.514   3.772 -23.863  0.00  0.00    +0.013 A 
ATOM      8  C   UNL     1      -4.633   3.760 -24.523  0.00  0.00    +0.001 A 
ATOM      9  C   UNL     1      -4.626   3.547 -25.808  0.00  0.00    +0.000 A 
ATOM     10  C   UNL     1      -3.500   3.347 -26.425  0.00  0.00    +0.001 A 
ATOM     11  C   UNL     1      -2.381   3.358 -25.765  0.00  0.00    +0.013 A 
ENDBRANCH   4   6
ENDBRANCH   1   2
BRANCH   1  12
ATOM     12  C   UNL     1       1.735   3.276 -23.785  0.00  0.00    +0.328 C 
ATOM     13  O   UNL     1       2.183   2.998 -24.974  0.00  0.00    -0.249 OA
BRANCH  12  15
ATOM     14  C   UNL     1       3.591   4.404 -23.192  0.00  0.00    +0.280 C 
ATOM     15  O   UNL     1       2.314   4.193 -23.069  0.00  0.00    -0.467 OA
ENDBRANCH  12  15
ENDBRANCH   1  12
BRANCH   1  16
ATOM     16  C   UNL     1       0.799   2.007 -22.178  0.00  0.00    +0.088 C 
BRANCH  16  17
ATOM     17  C   UNL     1       1.908   1.417 -21.849  0.00  0.00    +0.038 A 
ATOM     18  C   UNL     1       2.467   0.430 -22.483  0.00  0.00    +0.133 A 
ATOM     19  N   UNL     1       3.559   0.113 -21.855  0.00  0.00    -0.244 NA
ATOM     20  C   UNL     1       3.676   0.905 -20.830  0.00  0.00    +0.196 A 
ATOM     21  N   UNL     1       2.656   1.710 -20.827  0.00  0.00    -0.348 N 
ATOM     22  H   UNL     1       2.480   2.419 -20.167  0.00  0.00    +0.166 HD
ENDBRANCH  16  17
ENDBRANCH   1  16
TORSDOF 6
ENDMDL
MODEL 5
REMARK VINA RESULT:    -7.157      2.267      6.031
REMARK INTER + INTRA:         -10.218
REMARK INTER:                  -9.638
REMARK INTRA:                  -0.579
REMARK UNBOUND:                -0.550
REMARK  Name = ZINC000016997581
REMARK  7 active torsions:
REMARK  status: ('A' for Active; 'I' for Inactive)
REMARK    1  A    between atoms: C_1  and  O_2
REMARK    2  A    between atoms: O_2  and  C_3
REMARK    3  A    between atoms: C_3  and  C_5
REMARK    4  A    between atoms: C_5  and  C_6
REMARK    5  A    between atoms: C_5  and  N_12
REMARK    6  A    between atoms: C_6  and  C_7
REMARK    7  A    between atoms: C_13  and  C_15
REMARK                            x       y       z     vdW  Elec       q    Type
REMARK                         _______ _______ _______ _____ _____    ______ ____
ROOT
ATOM      1  C   UNL     1      -1.568   4.013 -22.799  0.00  0.00    +0.188 C 
ENDROOT
BRANCH   1   2
ATOM      2  N   UNL     1      -0.330   3.744 -22.509  0.00  0.00    -0.298 N 
ATOM      3  H   UNL     1       0.194   4.369 -21.958  0.00  0.00    +0.150 HD
ATOM      4  C   UNL     1       0.218   2.650 -22.949  0.00  0.00    +0.245 C 
ATOM      5  O   UNL     1      -0.473   1.825 -23.678  0.00  0.00    -0.270 OA
BRANCH   4   6
ATOM      6  C   UNL     1       1.456   2.380 -22.660  0.00  0.00    +0.037 A 
ATOM      7  C   UNL     1       1.746   1.339 -21.941  0.00  0.00    +0.013 A 
ATOM      8  C   UNL     1       2.983   1.068 -21.652  0.00  0.00    +0.001 A 
ATOM      9  C   UNL     1       3.936   1.844 -22.085  0.00  0.00    +0.000 A 
ATOM     10  C   UNL     1       3.645   2.886 -22.804  0.00  0.00    +0.001 A 
ATOM     11  C   UNL     1       2.408   3.157 -23.093  0.00  0.00    +0.013 A 
ENDBRANCH   4   6
ENDBRANCH   1   2
BRANCH   1  12
ATOM     12  C   UNL     1      -2.521   3.618 -22.007  0.00  0.00    +0.328 C 
ATOM     13  O   UNL     1      -3.227   2.570 -22.313  0.00  0.00    -0.249 OA
BRANCH  12  15
ATOM     14  C   UNL     1      -3.150   3.632 -19.845  0.00  0.00    +0.280 C 
ATOM     15  O   UNL     1      -2.768   4.272 -20.911  0.00  0.00    -0.467 OA
ENDBRANCH  12  15
ENDBRANCH   1  12
BRANCH   1  16
ATOM     16  C   UNL     1      -1.854   4.676 -23.880  0.00  0.00    +0.088 C 
BRANCH  16  17
ATOM     17  C   UNL     1      -2.761   4.229 -24.695  0.00  0.00    +0.038 A 
ATOM     18  C   UNL     1      -3.872   4.827 -25.007  0.00  0.00    +0.133 A 
ATOM     19  N   UNL     1      -4.515   4.073 -25.847  0.00  0.00    -0.244 NA
ATOM     20  C   UNL     1      -3.801   3.006 -26.055  0.00  0.00    +0.196 A 
ATOM     21  N   UNL     1      -2.718   3.103 -25.344  0.00  0.00    -0.348 N 
ATOM     22  H   UNL     1      -1.992   2.440 -25.303  0.00  0.00    +0.166 HD
ENDBRANCH  16  17
ENDBRANCH   1  16
TORSDOF 6
ENDMDL
MODEL 6
REMARK VINA RESULT:    -7.095      2.015      3.141
REMARK INTER + INTRA:         -10.134
REMARK INTER:                 -10.047
REMARK INTRA:                  -0.088
REMARK UNBOUND:                -0.550
REMARK  Name = ZINC000016997581
REMARK  7 active torsions:
REMARK  status: ('A' for Active; 'I' for Inactive)
REMARK    1  A    between atoms: C_1  and  O_2
REMARK    2  A    between atoms: O_2  and  C_3
REMARK    3  A    between atoms: C_3  and  C_5
REMARK    4  A    between atoms: C_5  and  C_6
REMARK    5  A    between atoms: C_5  and  N_12
REMARK    6  A    between atoms: C_6  and  C_7
REMARK    7  A    between atoms: C_13  and  C_15
REMARK                            x       y       z     vdW  Elec       q    Type
REMARK                         _______ _______ _______ _____ _____    ______ ____
ROOT
ATOM      1  C   UNL     1       1.386   2.859 -23.299  0.00  0.00    +0.188 C 
ENDROOT
BRANCH   1   2
ATOM      2  N   UNL     1       0.188   3.210 -22.939  0.00  0.00    -0.298 N 
ATOM      3  H   UNL     1      -0.105   4.144 -23.046  0.00  0.00    +0.150 HD
ATOM      4  C   UNL     1      -0.624   2.328 -22.437  0.00  0.00    +0.245 C 
ATOM      5  O   UNL     1      -0.238   1.095 -22.296  0.00  0.00    -0.270 OA
BRANCH   4   6
ATOM      6  C   UNL     1      -1.823   2.678 -22.077  0.00  0.00    +0.037 A 
ATOM      7  C   UNL     1      -2.071   2.976 -20.837  0.00  0.00    +0.013 A 
ATOM      8  C   UNL     1      -3.268   3.326 -20.475  0.00  0.00    +0.001 A 
ATOM      9  C   UNL     1      -4.224   3.378 -21.359  0.00  0.00    +0.000 A 
ATOM     10  C   UNL     1      -3.976   3.079 -22.599  0.00  0.00    +0.001 A 
ATOM     11  C   UNL     1      -2.778   2.729 -22.961  0.00  0.00    +0.013 A 
ENDBRANCH   4   6
ENDBRANCH   1   2
BRANCH   1  12
ATOM     12  C   UNL     1       1.573   2.250 -24.434  0.00  0.00    +0.328 C 
ATOM     13  O   UNL     1       2.162   1.092 -24.459  0.00  0.00    -0.249 OA
BRANCH  12  15
ATOM     14  C   UNL     1       1.223   4.091 -25.681  0.00  0.00    +0.280 C 
ATOM     15  O   UNL     1       1.170   2.800 -25.540  0.00  0.00    -0.467 OA
ENDBRANCH  12  15
ENDBRANCH   1  12
BRANCH   1  16
ATOM     16  C   UNL     1       2.400   3.116 -22.527  0.00  0.00    +0.088 C 
BRANCH  16  17
ATOM     17  C   UNL     1       3.076   2.143 -21.997  0.00  0.00    +0.038 A 
ATOM     18  C   UNL     1       4.371   2.034 -21.973  0.00  0.00    +0.133 A 
ATOM     19  N   UNL     1       4.673   0.930 -21.358  0.00  0.00    -0.244 NA
ATOM     20  C   UNL     1       3.563   0.354 -21.001  0.00  0.00    +0.196 A 
ATOM     21  N   UNL     1       2.577   1.103 -21.396  0.00  0.00    -0.348 N 
ATOM     22  H   UNL     1       1.620   0.916 -21.264  0.00  0.00    +0.166 HD
ENDBRANCH  16  17
ENDBRANCH   1  16
TORSDOF 6
ENDMDL
MODEL 7
REMARK VINA RESULT:    -6.977      2.458      6.456
REMARK INTER + INTRA:          -9.975
REMARK INTER:                  -9.503
REMARK INTRA:                  -0.472
REMARK UNBOUND:                -0.550
REMARK  Name = ZINC000016997581
REMARK  7 active torsions:
REMARK  status: ('A' for Active; 'I' for Inactive)
REMARK    1  A    between atoms: C_1  and  O_2
REMARK    2  A    between atoms: O_2  and  C_3
REMARK    3  A    between atoms: C_3  and  C_5
REMARK    4  A    between atoms: C_5  and  C_6
REMARK    5  A    between atoms: C_5  and  N_12
REMARK    6  A    between atoms: C_6  and  C_7
REMARK    7  A    between atoms: C_13  and  C_15
REMARK                            x       y       z     vdW  Elec       q    Type
REMARK                         _______ _______ _______ _____ _____    ______ ____
ROOT
ATOM      1  C   UNL     1      -1.874   3.717 -23.553  0.00  0.00    +0.188 C 
ENDROOT
BRANCH   1   2
ATOM      2  N   UNL     1      -0.675   3.223 -23.638  0.00  0.00    -0.298 N 
ATOM      3  H   UNL     1      -0.543   2.248 -23.628  0.00  0.00    +0.150 HD
ATOM      4  C   UNL     1       0.349   4.017 -23.737  0.00  0.00    +0.245 C 
ATOM      5  O   UNL     1       0.174   5.305 -23.750  0.00  0.00    -0.270 OA
BRANCH   4   6
ATOM      6  C   UNL     1       1.549   3.524 -23.822  0.00  0.00    +0.037 A 
ATOM      7  C   UNL     1       1.755   2.416 -24.467  0.00  0.00    +0.013 A 
ATOM      8  C   UNL     1       2.953   1.922 -24.553  0.00  0.00    +0.001 A 
ATOM      9  C   UNL     1       3.952   2.541 -23.991  0.00  0.00    +0.000 A 
ATOM     10  C   UNL     1       3.746   3.650 -23.346  0.00  0.00    +0.001 A 
ATOM     11  C   UNL     1       2.548   4.144 -23.259  0.00  0.00    +0.013 A 
ENDBRANCH   4   6
ENDBRANCH   1   2
BRANCH   1  12
ATOM     12  C   UNL     1      -2.573   3.918 -24.631  0.00  0.00    +0.328 C 
ATOM     13  O   UNL     1      -3.170   5.058 -24.813  0.00  0.00    -0.249 OA
BRANCH  12  15
ATOM     14  C   UNL     1      -3.722   2.923 -26.291  0.00  0.00    +0.280 C 
ATOM     15  O   UNL     1      -2.674   2.980 -25.525  0.00  0.00    -0.467 OA
ENDBRANCH  12  15
ENDBRANCH   1  12
BRANCH   1  16
ATOM     16  C   UNL     1      -2.376   4.010 -22.390  0.00  0.00    +0.088 C 
BRANCH  16  17
ATOM     17  C   UNL     1      -3.448   3.407 -21.974  0.00  0.00    +0.038 A 
ATOM     18  C   UNL     1      -3.498   2.447 -21.100  0.00  0.00    +0.133 A 
ATOM     19  N   UNL     1      -4.741   2.104 -20.944  0.00  0.00    -0.244 NA
ATOM     20  C   UNL     1      -5.463   2.854 -21.725  0.00  0.00    +0.196 A 
ATOM     21  N   UNL     1      -4.665   3.658 -22.360  0.00  0.00    -0.348 N 
ATOM     22  H   UNL     1      -4.933   4.339 -23.019  0.00  0.00    +0.166 HD
ENDBRANCH  16  17
ENDBRANCH   1  16
TORSDOF 6
ENDMDL
MODEL 8
REMARK VINA RESULT:    -6.762      2.212      6.161
REMARK INTER + INTRA:          -9.684
REMARK INTER:                  -9.374
REMARK INTRA:                  -0.310
REMARK UNBOUND:                -0.550
REMARK  Name = ZINC000016997581
REMARK  7 active torsions:
REMARK  status: ('A' for Active; 'I' for Inactive)
REMARK    1  A    between atoms: C_1  and  O_2
REMARK    2  A    between atoms: O_2  and  C_3
REMARK    3  A    between atoms: C_3  and  C_5
REMARK    4  A    between atoms: C_5  and  C_6
REMARK    5  A    between atoms: C_5  and  N_12
REMARK    6  A    between atoms: C_6  and  C_7
REMARK    7  A    between atoms: C_13  and  C_15
REMARK                            x       y       z     vdW  Elec       q    Type
REMARK                         _______ _______ _______ _____ _____    ______ ____
ROOT
ATOM      1  C   UNL     1      -0.488   3.538 -23.755  0.00  0.00    +0.188 C 
ENDROOT
BRANCH   1   2
ATOM      2  N   UNL     1       0.742   3.912 -23.565  0.00  0.00    -0.298 N 
ATOM      3  H   UNL     1       0.936   4.821 -23.242  0.00  0.00    +0.150 HD
ATOM      4  C   UNL     1       1.716   3.084 -23.801  0.00  0.00    +0.245 C 
ATOM      5  O   UNL     1       1.460   1.883 -24.227  0.00  0.00    -0.270 OA
BRANCH   4   6
ATOM      6  C   UNL     1       2.947   3.457 -23.611  0.00  0.00    +0.037 A 
ATOM      7  C   UNL     1       3.208   4.655 -23.183  0.00  0.00    +0.013 A 
ATOM      8  C   UNL     1       4.437   5.029 -22.994  0.00  0.00    +0.001 A 
ATOM      9  C   UNL     1       5.412   4.198 -23.233  0.00  0.00    +0.000 A 
ATOM     10  C   UNL     1       5.151   3.000 -23.662  0.00  0.00    +0.001 A 
ATOM     11  C   UNL     1       3.922   2.626 -23.852  0.00  0.00    +0.013 A 
ENDBRANCH   4   6
ENDBRANCH   1   2
BRANCH   1  12
ATOM     12  C   UNL     1      -1.202   3.119 -22.752  0.00  0.00    +0.328 C 
ATOM     13  O   UNL     1      -1.800   3.975 -21.977  0.00  0.00    -0.249 OA
BRANCH  12  15
ATOM     14  C   UNL     1      -0.712   1.307 -21.509  0.00  0.00    +0.280 C 
ATOM     15  O   UNL     1      -1.319   1.844 -22.525  0.00  0.00    -0.467 OA
ENDBRANCH  12  15
ENDBRANCH   1  12
BRANCH   1  16
ATOM     16  C   UNL     1      -1.005   3.583 -24.946  0.00  0.00    +0.088 C 
BRANCH  16  17
ATOM     17  C   UNL     1      -2.286   3.736 -25.093  0.00  0.00    +0.038 A 
ATOM     18  C   UNL     1      -3.100   2.886 -25.646  0.00  0.00    +0.133 A 
ATOM     19  N   UNL     1      -4.297   3.390 -25.608  0.00  0.00    -0.244 NA
ATOM     20  C   UNL     1      -4.225   4.553 -25.030  0.00  0.00    +0.196 A 
ATOM     21  N   UNL     1      -2.983   4.766 -24.713  0.00  0.00    -0.348 N 
ATOM     22  H   UNL     1      -2.630   5.567 -24.262  0.00  0.00    +0.166 HD
ENDBRANCH  16  17
ENDBRANCH   1  16
TORSDOF 6
ENDMDL
MODEL 9
REMARK VINA RESULT:    -6.713      1.562      2.119
REMARK INTER + INTRA:          -9.618
REMARK INTER:                  -9.068
REMARK INTRA:                  -0.550
REMARK UNBOUND:                -0.550
REMARK  Name = ZINC000016997581
REMARK  7 active torsions:
REMARK  status: ('A' for Active; 'I' for Inactive)
REMARK    1  A    between atoms: C_1  and  O_2
REMARK    2  A    between atoms: O_2  and  C_3
REMARK    3  A    between atoms: C_3  and  C_5
REMARK    4  A    between atoms: C_5  and  C_6
REMARK    5  A    between atoms: C_5  and  N_12
REMARK    6  A    between atoms: C_6  and  C_7
REMARK    7  A    between atoms: C_13  and  C_15
REMARK                            x       y       z     vdW  Elec       q    Type
REMARK                         _______ _______ _______ _____ _____    ______ ____
ROOT
ATOM      1  C   UNL     1       2.542   3.010 -22.897  0.00  0.00    +0.188 C 
ENDROOT
BRANCH   1   2
ATOM      2  N   UNL     1       1.253   3.151 -22.817  0.00  0.00    -0.298 N 
ATOM      3  H   UNL     1       0.852   3.575 -22.024  0.00  0.00    +0.150 HD
ATOM      4  C   UNL     1       0.492   2.732 -23.783  0.00  0.00    +0.245 C 
ATOM      5  O   UNL     1       1.020   2.172 -24.831  0.00  0.00    -0.270 OA
BRANCH   4   6
ATOM      6  C   UNL     1      -0.798   2.872 -23.704  0.00  0.00    +0.037 A 
ATOM      7  C   UNL     1      -1.490   3.155 -24.765  0.00  0.00    +0.013 A 
ATOM      8  C   UNL     1      -2.779   3.296 -24.687  0.00  0.00    +0.001 A 
ATOM      9  C   UNL     1      -3.380   3.152 -23.540  0.00  0.00    +0.000 A 
ATOM     10  C   UNL     1      -2.687   2.869 -22.478  0.00  0.00    +0.001 A 
ATOM     11  C   UNL     1      -1.398   2.728 -22.556  0.00  0.00    +0.013 A 
ENDBRANCH   4   6
ENDBRANCH   1   2
BRANCH   1  12
ATOM     12  C   UNL     1       3.131   2.038 -22.265  0.00  0.00    +0.328 C 
ATOM     13  O   UNL     1       2.659   1.624 -21.127  0.00  0.00    -0.249 OA
BRANCH  12  15
ATOM     14  C   UNL     1       5.046   0.887 -21.995  0.00  0.00    +0.280 C 
ATOM     15  O   UNL     1       4.191   1.481 -22.772  0.00  0.00    -0.467 OA
ENDBRANCH  12  15
ENDBRANCH   1  12
BRANCH   1  16
ATOM     16  C   UNL     1       3.244   3.840 -23.610  0.00  0.00    +0.088 C 
BRANCH  16  17
ATOM     17  C   UNL     1       3.724   4.918 -23.067  0.00  0.00    +0.038 A 
ATOM     18  C   UNL     1       4.971   5.138 -22.773  0.00  0.00    +0.133 A 
ATOM     19  N   UNL     1       5.060   6.322 -22.246  0.00  0.00    -0.244 NA
ATOM     20  C   UNL     1       3.865   6.836 -22.214  0.00  0.00    +0.196 A 
ATOM     21  N   UNL     1       3.041   5.969 -22.721  0.00  0.00    -0.348 N 
ATOM     22  H   UNL     1       2.069   6.087 -22.825  0.00  0.00    +0.166 HD
ENDBRANCH  16  17
ENDBRANCH   1  16
TORSDOF 6
ENDMDL
