MODEL 1
REMARK VINA RESULT:    -9.031      0.000      0.000
REMARK INTER + INTRA:         -17.419
REMARK INTER:                 -15.616
REMARK INTRA:                  -1.804
REMARK UNBOUND:                -1.260
REMARK  Name = CCCCCCCCCCCC1=C(O)C(=O)C=C(Nc2ccc(S(N)(=O)=O)cc2)C1=O                ZINC000100392813
REMARK  15 active torsions:
REMARK  status: ('A' for Active; 'I' for Inactive)
REMARK    1  A    between atoms: C_1  and  C_2
REMARK    2  A    between atoms: C_2  and  C_3
REMARK    3  A    between atoms: C_3  and  C_4
REMARK    4  A    between atoms: C_4  and  C_5
REMARK    5  A    between atoms: C_5  and  C_6
REMARK    6  A    between atoms: C_6  and  C_7
REMARK    7  A    between atoms: C_7  and  C_8
REMARK    8  A    between atoms: C_8  and  C_9
REMARK    9  A    between atoms: C_9  and  C_10
REMARK   10  A    between atoms: C_10  and  C_11
REMARK   11  A    between atoms: C_11  and  C_12
REMARK   12  A    between atoms: C_18  and  N_19
REMARK   13  A    between atoms: N_19  and  C_20
REMARK   14  A    between atoms: C_23  and  S_24
REMARK   15  A    between atoms: S_24  and  N_25
REMARK                            x       y       z     vdW  Elec       q    Type
REMARK                         _______ _______ _______ _____ _____    ______ ____
ROOT
ATOM      1  C   UNL     1       3.112   2.832 -24.005  0.00  0.00    -0.008 C 
ATOM      2  C   UNL     1       3.287   3.897 -23.281  0.00  0.00    +0.228 C 
ATOM      3  C   UNL     1       2.480   4.908 -23.406  0.00  0.00    +0.227 C 
ATOM      4  C   UNL     1       1.497   4.854 -24.257  0.00  0.00    +0.077 C 
ATOM      5  C   UNL     1       1.322   3.789 -24.981  0.00  0.00    +0.022 C 
ATOM      6  O   UNL     1       2.654   5.974 -22.682  0.00  0.00    -0.284 OA
ATOM      7  O   UNL     1       4.269   3.952 -22.431  0.00  0.00    -0.284 OA
ATOM      8  C   UNL     1       2.130   2.778 -24.855  0.00  0.00    -0.112 C 
ATOM      9  O   UNL     1       1.955   1.712 -25.579  0.00  0.00    -0.828 OA
ENDROOT
BRANCH   5  10
ATOM     10  N   UNL     1       0.340   3.734 -25.831  0.00  0.00    -0.315 N 
ATOM     11  H   UNL     1       0.526   3.638 -26.792  0.00  0.00    +0.152 HD
BRANCH  10  12
ATOM     12  C   UNL     1      -0.888   3.806 -25.410  0.00  0.00    +0.031 A 
ATOM     13  C   UNL     1      -1.849   3.297 -26.121  0.00  0.00    +0.025 A 
ATOM     14  C   UNL     1      -3.078   3.370 -25.700  0.00  0.00    +0.030 A 
ATOM     15  C   UNL     1      -3.344   3.950 -24.569  0.00  0.00    +0.105 A 
ATOM     16  C   UNL     1      -2.382   4.459 -23.857  0.00  0.00    +0.030 A 
ATOM     17  C   UNL     1      -1.155   4.387 -24.278  0.00  0.00    +0.025 A 
BRANCH  15  18
ATOM     18  S   UNL     1      -4.572   4.022 -24.148  0.00  0.00    +0.056 S 
ATOM     19  O   UNL     1      -4.797   5.001 -24.974  0.00  0.00    -0.153 OA
ATOM     20  O   UNL     1      -4.346   3.044 -23.323  0.00  0.00    -0.153 OA
BRANCH  18  21
ATOM     21  N   UNL     1      -5.800   4.094 -23.728  0.00  0.00    -0.204 NA
ATOM     22  H   UNL     1      -5.912   4.925 -23.146  0.00  0.00    +0.144 HD
ATOM     23  H   UNL     1      -6.430   4.152 -24.528  0.00  0.00    +0.144 HD
ENDBRANCH  18  21
ENDBRANCH  15  18
ENDBRANCH  10  12
ENDBRANCH   5  10
BRANCH   1  24
ATOM     24  C   UNL     1       3.919   1.821 -23.880  0.00  0.00    +0.038 C 
BRANCH  24  25
ATOM     25  C   UNL     1       3.559   0.784 -23.183  0.00  0.00    +0.005 C 
BRANCH  25  26
ATOM     26  C   UNL     1       3.955   0.659 -21.951  0.00  0.00    +0.000 C 
BRANCH  26  27
ATOM     27  C   UNL     1       3.081   0.557 -20.995  0.00  0.00    +0.000 C 
BRANCH  27  28
ATOM     28  C   UNL     1       2.336   1.576 -20.684  0.00  0.00    +0.000 C 
BRANCH  28  29
ATOM     29  C   UNL     1       1.043   1.448 -20.646  0.00  0.00    +0.000 C 
BRANCH  29  30
ATOM     30  C   UNL     1       0.336   1.678 -21.713  0.00  0.00    -0.000 C 
BRANCH  30  31
ATOM     31  C   UNL     1      -0.960   1.753 -21.631  0.00  0.00    -0.000 C 
BRANCH  31  32
ATOM     32  C   UNL     1      -1.520   2.829 -21.164  0.00  0.00    -0.000 C 
BRANCH  32  34
ATOM     33  C   UNL     1      -3.229   3.829 -20.092  0.00  0.00    +0.004 C 
ATOM     34  C   UNL     1      -2.655   2.750 -20.536  0.00  0.00    -0.003 C 
ENDBRANCH  32  34
ENDBRANCH  31  32
ENDBRANCH  30  31
ENDBRANCH  29  30
ENDBRANCH  28  29
ENDBRANCH  27  28
ENDBRANCH  26  27
ENDBRANCH  25  26
ENDBRANCH  24  25
ENDBRANCH   1  24
TORSDOF 14
ENDMDL
MODEL 2
REMARK VINA RESULT:    -8.890      3.708      7.192
REMARK INTER + INTRA:         -17.166
REMARK INTER:                 -14.782
REMARK INTRA:                  -2.383
REMARK UNBOUND:                -1.260
REMARK  Name = CCCCCCCCCCCC1=C(O)C(=O)C=C(Nc2ccc(S(N)(=O)=O)cc2)C1=O                ZINC000100392813
REMARK  15 active torsions:
REMARK  status: ('A' for Active; 'I' for Inactive)
REMARK    1  A    between atoms: C_1  and  C_2
REMARK    2  A    between atoms: C_2  and  C_3
REMARK    3  A    between atoms: C_3  and  C_4
REMARK    4  A    between atoms: C_4  and  C_5
REMARK    5  A    between atoms: C_5  and  C_6
REMARK    6  A    between atoms: C_6  and  C_7
REMARK    7  A    between atoms: C_7  and  C_8
REMARK    8  A    between atoms: C_8  and  C_9
REMARK    9  A    between atoms: C_9  and  C_10
REMARK   10  A    between atoms: C_10  and  C_11
REMARK   11  A    between atoms: C_11  and  C_12
REMARK   12  A    between atoms: C_18  and  N_19
REMARK   13  A    between atoms: N_19  and  C_20
REMARK   14  A    between atoms: C_23  and  S_24
REMARK   15  A    between atoms: S_24  and  N_25
REMARK                            x       y       z     vdW  Elec       q    Type
REMARK                         _______ _______ _______ _____ _____    ______ ____
ROOT
ATOM      1  C   UNL     1       0.592   2.271 -22.881  0.00  0.00    -0.008 C 
ATOM      2  C   UNL     1       0.663   1.815 -21.666  0.00  0.00    +0.228 C 
ATOM      3  C   UNL     1       1.821   1.614 -21.113  0.00  0.00    +0.227 C 
ATOM      4  C   UNL     1       2.911   1.867 -21.776  0.00  0.00    +0.077 C 
ATOM      5  C   UNL     1       2.841   2.323 -22.992  0.00  0.00    +0.022 C 
ATOM      6  O   UNL     1       1.892   1.158 -19.898  0.00  0.00    -0.284 OA
ATOM      7  O   UNL     1      -0.426   1.562 -21.003  0.00  0.00    -0.284 OA
ATOM      8  C   UNL     1       1.681   2.524 -23.544  0.00  0.00    -0.112 C 
ATOM      9  O   UNL     1       1.611   2.980 -24.760  0.00  0.00    -0.828 OA
ENDROOT
BRANCH   5  10
ATOM     10  N   UNL     1       3.930   2.576 -23.655  0.00  0.00    -0.315 N 
ATOM     11  H   UNL     1       4.089   2.142 -24.524  0.00  0.00    +0.152 HD
BRANCH  10  12
ATOM     12  C   UNL     1       4.808   3.403 -23.170  0.00  0.00    +0.031 A 
ATOM     13  C   UNL     1       4.544   4.675 -23.120  0.00  0.00    +0.025 A 
ATOM     14  C   UNL     1       5.423   5.502 -22.635  0.00  0.00    +0.030 A 
ATOM     15  C   UNL     1       6.564   5.058 -22.201  0.00  0.00    +0.105 A 
ATOM     16  C   UNL     1       6.828   3.786 -22.251  0.00  0.00    +0.030 A 
ATOM     17  C   UNL     1       5.950   2.959 -22.735  0.00  0.00    +0.025 A 
BRANCH  15  18
ATOM     18  S   UNL     1       7.442   5.885 -21.716  0.00  0.00    +0.056 S 
ATOM     19  O   UNL     1       6.775   5.938 -20.601  0.00  0.00    -0.153 OA
ATOM     20  O   UNL     1       8.108   5.831 -22.831  0.00  0.00    -0.153 OA
BRANCH  18  21
ATOM     21  N   UNL     1       8.320   6.712 -21.231  0.00  0.00    -0.204 NA
ATOM     22  H   UNL     1       8.973   6.984 -21.966  0.00  0.00    +0.144 HD
ATOM     23  H   UNL     1       7.845   7.541 -20.874  0.00  0.00    +0.144 HD
ENDBRANCH  18  21
ENDBRANCH  15  18
ENDBRANCH  10  12
ENDBRANCH   5  10
BRANCH   1  24
ATOM     24  C   UNL     1      -0.567   2.472 -23.434  0.00  0.00    +0.038 C 
BRANCH  24  25
ATOM     25  C   UNL     1      -1.131   3.641 -23.353  0.00  0.00    +0.005 C 
BRANCH  25  26
ATOM     26  C   UNL     1      -1.844   4.088 -24.344  0.00  0.00    +0.000 C 
BRANCH  26  27
ATOM     27  C   UNL     1      -2.651   3.290 -24.976  0.00  0.00    +0.000 C 
BRANCH  27  28
ATOM     28  C   UNL     1      -3.863   3.673 -25.249  0.00  0.00    +0.000 C 
BRANCH  28  29
ATOM     29  C   UNL     1      -4.557   4.318 -24.360  0.00  0.00    +0.000 C 
BRANCH  29  30
ATOM     30  C   UNL     1      -5.324   3.667 -23.537  0.00  0.00    -0.000 C 
BRANCH  30  31
ATOM     31  C   UNL     1      -5.106   3.731 -22.256  0.00  0.00    -0.000 C 
BRANCH  31  32
ATOM     32  C   UNL     1      -4.781   2.658 -21.597  0.00  0.00    -0.000 C 
BRANCH  32  34
ATOM     33  C   UNL     1      -3.251   3.726 -20.336  0.00  0.00    +0.004 C 
ATOM     34  C   UNL     1      -3.690   2.635 -20.892  0.00  0.00    -0.003 C 
ENDBRANCH  32  34
ENDBRANCH  31  32
ENDBRANCH  30  31
ENDBRANCH  29  30
ENDBRANCH  28  29
ENDBRANCH  27  28
ENDBRANCH  26  27
ENDBRANCH  25  26
ENDBRANCH  24  25
ENDBRANCH   1  24
TORSDOF 14
ENDMDL
MODEL 3
REMARK VINA RESULT:    -8.806      3.539      7.105
REMARK INTER + INTRA:         -17.016
REMARK INTER:                 -15.528
REMARK INTRA:                  -1.488
REMARK UNBOUND:                -1.260
REMARK  Name = CCCCCCCCCCCC1=C(O)C(=O)C=C(Nc2ccc(S(N)(=O)=O)cc2)C1=O                ZINC000100392813
REMARK  15 active torsions:
REMARK  status: ('A' for Active; 'I' for Inactive)
REMARK    1  A    between atoms: C_1  and  C_2
REMARK    2  A    between atoms: C_2  and  C_3
REMARK    3  A    between atoms: C_3  and  C_4
REMARK    4  A    between atoms: C_4  and  C_5
REMARK    5  A    between atoms: C_5  and  C_6
REMARK    6  A    between atoms: C_6  and  C_7
REMARK    7  A    between atoms: C_7  and  C_8
REMARK    8  A    between atoms: C_8  and  C_9
REMARK    9  A    between atoms: C_9  and  C_10
REMARK   10  A    between atoms: C_10  and  C_11
REMARK   11  A    between atoms: C_11  and  C_12
REMARK   12  A    between atoms: C_18  and  N_19
REMARK   13  A    between atoms: N_19  and  C_20
REMARK   14  A    between atoms: C_23  and  S_24
REMARK   15  A    between atoms: S_24  and  N_25
REMARK                            x       y       z     vdW  Elec       q    Type
REMARK                         _______ _______ _______ _____ _____    ______ ____
ROOT
ATOM      1  C   UNL     1      -0.031   2.575 -23.427  0.00  0.00    -0.008 C 
ATOM      2  C   UNL     1       0.023   3.299 -24.505  0.00  0.00    +0.228 C 
ATOM      3  C   UNL     1       1.137   3.397 -25.167  0.00  0.00    +0.227 C 
ATOM      4  C   UNL     1       2.198   2.770 -24.751  0.00  0.00    +0.077 C 
ATOM      5  C   UNL     1       2.144   2.046 -23.673  0.00  0.00    +0.022 C 
ATOM      6  O   UNL     1       1.191   4.122 -26.245  0.00  0.00    -0.284 OA
ATOM      7  O   UNL     1      -1.037   3.926 -24.921  0.00  0.00    -0.284 OA
ATOM      8  C   UNL     1       1.029   1.948 -23.011  0.00  0.00    -0.112 C 
ATOM      9  O   UNL     1       0.975   1.224 -21.933  0.00  0.00    -0.828 OA
ENDROOT
BRANCH   5  10
ATOM     10  N   UNL     1       3.204   1.419 -23.257  0.00  0.00    -0.315 N 
ATOM     11  H   UNL     1       3.241   0.437 -23.295  0.00  0.00    +0.152 HD
BRANCH  10  12
ATOM     12  C   UNL     1       4.215   2.091 -22.792  0.00  0.00    +0.031 A 
ATOM     13  C   UNL     1       4.847   2.929 -23.559  0.00  0.00    +0.025 A 
ATOM     14  C   UNL     1       5.858   3.601 -23.093  0.00  0.00    +0.030 A 
ATOM     15  C   UNL     1       6.238   3.435 -21.862  0.00  0.00    +0.105 A 
ATOM     16  C   UNL     1       5.606   2.597 -21.095  0.00  0.00    +0.030 A 
ATOM     17  C   UNL     1       4.595   1.925 -21.560  0.00  0.00    +0.025 A 
BRANCH  15  18
ATOM     18  S   UNL     1       7.249   4.107 -21.397  0.00  0.00    +0.056 S 
ATOM     19  O   UNL     1       7.844   4.007 -22.549  0.00  0.00    -0.153 OA
ATOM     20  O   UNL     1       6.653   4.206 -20.246  0.00  0.00    -0.153 OA
BRANCH  18  21
ATOM     21  N   UNL     1       8.260   4.779 -20.932  0.00  0.00    -0.204 NA
ATOM     22  H   UNL     1       9.062   4.157 -20.827  0.00  0.00    +0.144 HD
ATOM     23  H   UNL     1       8.495   5.530 -21.580  0.00  0.00    +0.144 HD
ENDBRANCH  18  21
ENDBRANCH  15  18
ENDBRANCH  10  12
ENDBRANCH   5  10
BRANCH   1  24
ATOM     24  C   UNL     1      -1.145   2.477 -22.765  0.00  0.00    +0.038 C 
BRANCH  24  25
ATOM     25  C   UNL     1      -1.500   3.423 -21.946  0.00  0.00    +0.005 C 
BRANCH  25  26
ATOM     26  C   UNL     1      -2.010   3.123 -20.789  0.00  0.00    +0.000 C 
BRANCH  26  27
ATOM     27  C   UNL     1      -3.207   3.525 -20.482  0.00  0.00    +0.000 C 
BRANCH  27  28
ATOM     28  C   UNL     1      -4.208   2.697 -20.542  0.00  0.00    +0.000 C 
BRANCH  28  29
ATOM     29  C   UNL     1      -4.833   2.514 -21.667  0.00  0.00    +0.000 C 
BRANCH  29  30
ATOM     30  C   UNL     1      -5.626   3.435 -22.127  0.00  0.00    -0.000 C 
BRANCH  30  31
ATOM     31  C   UNL     1      -5.590   3.753 -23.388  0.00  0.00    -0.000 C 
BRANCH  31  32
ATOM     32  C   UNL     1      -4.474   3.672 -24.048  0.00  0.00    -0.000 C 
BRANCH  32  34
ATOM     33  C   UNL     1      -4.242   3.078 -26.208  0.00  0.00    +0.004 C 
ATOM     34  C   UNL     1      -4.438   3.995 -25.306  0.00  0.00    -0.003 C 
ENDBRANCH  32  34
ENDBRANCH  31  32
ENDBRANCH  30  31
ENDBRANCH  29  30
ENDBRANCH  28  29
ENDBRANCH  27  28
ENDBRANCH  26  27
ENDBRANCH  25  26
ENDBRANCH  24  25
ENDBRANCH   1  24
TORSDOF 14
ENDMDL
MODEL 4
REMARK VINA RESULT:    -8.385      4.050      7.279
REMARK INTER + INTRA:         -16.263
REMARK INTER:                 -14.553
REMARK INTRA:                  -1.709
REMARK UNBOUND:                -1.260
REMARK  Name = CCCCCCCCCCCC1=C(O)C(=O)C=C(Nc2ccc(S(N)(=O)=O)cc2)C1=O                ZINC000100392813
REMARK  15 active torsions:
REMARK  status: ('A' for Active; 'I' for Inactive)
REMARK    1  A    between atoms: C_1  and  C_2
REMARK    2  A    between atoms: C_2  and  C_3
REMARK    3  A    between atoms: C_3  and  C_4
REMARK    4  A    between atoms: C_4  and  C_5
REMARK    5  A    between atoms: C_5  and  C_6
REMARK    6  A    between atoms: C_6  and  C_7
REMARK    7  A    between atoms: C_7  and  C_8
REMARK    8  A    between atoms: C_8  and  C_9
REMARK    9  A    between atoms: C_9  and  C_10
REMARK   10  A    between atoms: C_10  and  C_11
REMARK   11  A    between atoms: C_11  and  C_12
REMARK   12  A    between atoms: C_18  and  N_19
REMARK   13  A    between atoms: N_19  and  C_20
REMARK   14  A    between atoms: C_23  and  S_24
REMARK   15  A    between atoms: S_24  and  N_25
REMARK                            x       y       z     vdW  Elec       q    Type
REMARK                         _______ _______ _______ _____ _____    ______ ____
ROOT
ATOM      1  C   UNL     1       1.450   2.394 -22.902  0.00  0.00    -0.008 C 
ATOM      2  C   UNL     1       1.509   1.656 -21.833  0.00  0.00    +0.228 C 
ATOM      3  C   UNL     1       2.653   1.432 -21.260  0.00  0.00    +0.227 C 
ATOM      4  C   UNL     1       3.740   1.946 -21.756  0.00  0.00    +0.077 C 
ATOM      5  C   UNL     1       3.681   2.685 -22.824  0.00  0.00    +0.022 C 
ATOM      6  O   UNL     1       2.712   0.693 -20.192  0.00  0.00    -0.284 OA
ATOM      7  O   UNL     1       0.423   1.141 -21.338  0.00  0.00    -0.284 OA
ATOM      8  C   UNL     1       2.536   2.909 -23.397  0.00  0.00    -0.112 C 
ATOM      9  O   UNL     1       2.477   3.647 -24.465  0.00  0.00    -0.828 OA
ENDROOT
BRANCH   5  10
ATOM     10  N   UNL     1       4.767   3.200 -23.319  0.00  0.00    -0.315 N 
ATOM     11  H   UNL     1       5.085   2.918 -24.207  0.00  0.00    +0.152 HD
BRANCH  10  12
ATOM     12  C   UNL     1       5.434   4.086 -22.642  0.00  0.00    +0.031 A 
ATOM     13  C   UNL     1       5.145   5.348 -22.762  0.00  0.00    +0.025 A 
ATOM     14  C   UNL     1       5.812   6.234 -22.083  0.00  0.00    +0.030 A 
ATOM     15  C   UNL     1       6.767   5.860 -21.286  0.00  0.00    +0.105 A 
ATOM     16  C   UNL     1       7.056   4.598 -21.166  0.00  0.00    +0.030 A 
ATOM     17  C   UNL     1       6.390   3.712 -21.843  0.00  0.00    +0.025 A 
BRANCH  15  18
ATOM     18  S   UNL     1       7.434   6.746 -20.608  0.00  0.00    +0.056 S 
ATOM     19  O   UNL     1       7.730   7.367 -21.712  0.00  0.00    -0.153 OA
ATOM     20  O   UNL     1       7.138   6.126 -19.505  0.00  0.00    -0.153 OA
BRANCH  18  21
ATOM     21  N   UNL     1       8.101   7.634 -19.930  0.00  0.00    -0.204 NA
ATOM     22  H   UNL     1       9.047   7.706 -20.305  0.00  0.00    +0.144 HD
ATOM     23  H   UNL     1       7.635   8.538 -20.005  0.00  0.00    +0.144 HD
ENDBRANCH  18  21
ENDBRANCH  15  18
ENDBRANCH  10  12
ENDBRANCH   5  10
BRANCH   1  24
ATOM     24  C   UNL     1       0.305   2.618 -23.475  0.00  0.00    +0.038 C 
BRANCH  24  25
ATOM     25  C   UNL     1      -0.195   3.819 -23.482  0.00  0.00    +0.005 C 
BRANCH  25  26
ATOM     26  C   UNL     1      -0.895   4.238 -22.471  0.00  0.00    +0.000 C 
BRANCH  26  27
ATOM     27  C   UNL     1      -1.891   3.529 -22.031  0.00  0.00    +0.000 C 
BRANCH  27  28
ATOM     28  C   UNL     1      -2.607   3.960 -21.035  0.00  0.00    +0.000 C 
BRANCH  28  29
ATOM     29  C   UNL     1      -3.878   3.689 -20.982  0.00  0.00    +0.000 C 
BRANCH  29  30
ATOM     30  C   UNL     1      -4.423   2.949 -21.901  0.00  0.00    -0.000 C 
BRANCH  30  31
ATOM     31  C   UNL     1      -5.462   3.382 -22.553  0.00  0.00    -0.000 C 
BRANCH  31  32
ATOM     32  C   UNL     1      -5.305   4.084 -23.635  0.00  0.00    -0.000 C 
BRANCH  32  34
ATOM     33  C   UNL     1      -3.753   4.449 -25.226  0.00  0.00    +0.004 C 
ATOM     34  C   UNL     1      -4.551   3.638 -24.595  0.00  0.00    -0.003 C 
ENDBRANCH  32  34
ENDBRANCH  31  32
ENDBRANCH  30  31
ENDBRANCH  29  30
ENDBRANCH  28  29
ENDBRANCH  27  28
ENDBRANCH  26  27
ENDBRANCH  25  26
ENDBRANCH  24  25
ENDBRANCH   1  24
TORSDOF 14
ENDMDL
MODEL 5
REMARK VINA RESULT:    -7.794      2.985      4.763
REMARK INTER + INTRA:         -15.205
REMARK INTER:                 -13.257
REMARK INTRA:                  -1.947
REMARK UNBOUND:                -1.260
REMARK  Name = CCCCCCCCCCCC1=C(O)C(=O)C=C(Nc2ccc(S(N)(=O)=O)cc2)C1=O                ZINC000100392813
REMARK  15 active torsions:
REMARK  status: ('A' for Active; 'I' for Inactive)
REMARK    1  A    between atoms: C_1  and  C_2
REMARK    2  A    between atoms: C_2  and  C_3
REMARK    3  A    between atoms: C_3  and  C_4
REMARK    4  A    between atoms: C_4  and  C_5
REMARK    5  A    between atoms: C_5  and  C_6
REMARK    6  A    between atoms: C_6  and  C_7
REMARK    7  A    between atoms: C_7  and  C_8
REMARK    8  A    between atoms: C_8  and  C_9
REMARK    9  A    between atoms: C_9  and  C_10
REMARK   10  A    between atoms: C_10  and  C_11
REMARK   11  A    between atoms: C_11  and  C_12
REMARK   12  A    between atoms: C_18  and  N_19
REMARK   13  A    between atoms: N_19  and  C_20
REMARK   14  A    between atoms: C_23  and  S_24
REMARK   15  A    between atoms: S_24  and  N_25
REMARK                            x       y       z     vdW  Elec       q    Type
REMARK                         _______ _______ _______ _____ _____    ______ ____
ROOT
ATOM      1  C   UNL     1       3.421   3.528 -22.946  0.00  0.00    -0.008 C 
ATOM      2  C   UNL     1       3.391   2.230 -22.887  0.00  0.00    +0.228 C 
ATOM      3  C   UNL     1       2.354   1.583 -23.327  0.00  0.00    +0.227 C 
ATOM      4  C   UNL     1       1.345   2.234 -23.827  0.00  0.00    +0.077 C 
ATOM      5  C   UNL     1       1.374   3.532 -23.886  0.00  0.00    +0.022 C 
ATOM      6  O   UNL     1       2.324   0.285 -23.268  0.00  0.00    -0.284 OA
ATOM      7  O   UNL     1       4.399   1.579 -22.387  0.00  0.00    -0.284 OA
ATOM      8  C   UNL     1       2.413   4.180 -23.445  0.00  0.00    -0.112 C 
ATOM      9  O   UNL     1       2.442   5.478 -23.505  0.00  0.00    -0.828 OA
ENDROOT
BRANCH   5  10
ATOM     10  N   UNL     1       0.366   4.184 -24.386  0.00  0.00    -0.315 N 
ATOM     11  H   UNL     1       0.512   4.837 -25.107  0.00  0.00    +0.152 HD
BRANCH  10  12
ATOM     12  C   UNL     1      -0.833   3.971 -23.933  0.00  0.00    +0.031 A 
ATOM     13  C   UNL     1      -1.733   3.434 -24.702  0.00  0.00    +0.025 A 
ATOM     14  C   UNL     1      -2.933   3.222 -24.248  0.00  0.00    +0.030 A 
ATOM     15  C   UNL     1      -3.233   3.547 -23.026  0.00  0.00    +0.105 A 
ATOM     16  C   UNL     1      -2.333   4.084 -22.257  0.00  0.00    +0.030 A 
ATOM     17  C   UNL     1      -1.134   4.296 -22.710  0.00  0.00    +0.025 A 
BRANCH  15  18
ATOM     18  S   UNL     1      -4.433   3.334 -22.573  0.00  0.00    +0.056 S 
ATOM     19  O   UNL     1      -4.925   4.046 -23.544  0.00  0.00    -0.153 OA
ATOM     20  O   UNL     1      -3.940   2.624 -21.602  0.00  0.00    -0.153 OA
BRANCH  18  21
ATOM     21  N   UNL     1      -5.633   3.122 -22.120  0.00  0.00    -0.204 NA
ATOM     22  H   UNL     1      -6.306   3.227 -22.879  0.00  0.00    +0.144 HD
ATOM     23  H   UNL     1      -5.691   2.177 -21.741  0.00  0.00    +0.144 HD
ENDBRANCH  18  21
ENDBRANCH  15  18
ENDBRANCH  10  12
ENDBRANCH   5  10
BRANCH   1  24
ATOM     24  C   UNL     1       4.458   4.176 -22.505  0.00  0.00    +0.038 C 
BRANCH  24  25
ATOM     25  C   UNL     1       5.521   4.284 -23.248  0.00  0.00    +0.005 C 
BRANCH  25  26
ATOM     26  C   UNL     1       6.699   4.124 -22.723  0.00  0.00    +0.000 C 
BRANCH  26  27
ATOM     27  C   UNL     1       6.821   3.936 -21.443  0.00  0.00    +0.000 C 
BRANCH  27  28
ATOM     28  C   UNL     1       7.622   4.687 -20.748  0.00  0.00    +0.000 C 
BRANCH  28  29
ATOM     29  C   UNL     1       7.152   5.707 -20.092  0.00  0.00    +0.000 C 
BRANCH  29  30
ATOM     30  C   UNL     1       7.667   6.887 -20.270  0.00  0.00    -0.000 C 
BRANCH  30  31
ATOM     31  C   UNL     1       7.008   7.791 -20.932  0.00  0.00    -0.000 C 
BRANCH  31  32
ATOM     32  C   UNL     1       5.837   7.512 -21.423  0.00  0.00    -0.000 C 
BRANCH  32  34
ATOM     33  C   UNL     1       4.206   8.519 -20.241  0.00  0.00    +0.004 C 
ATOM     34  C   UNL     1       4.876   8.384 -21.347  0.00  0.00    -0.003 C 
ENDBRANCH  32  34
ENDBRANCH  31  32
ENDBRANCH  30  31
ENDBRANCH  29  30
ENDBRANCH  28  29
ENDBRANCH  27  28
ENDBRANCH  26  27
ENDBRANCH  25  26
ENDBRANCH  24  25
ENDBRANCH   1  24
TORSDOF 14
ENDMDL
MODEL 6
REMARK VINA RESULT:    -7.554      2.007      3.904
REMARK INTER + INTRA:         -14.776
REMARK INTER:                 -13.221
REMARK INTRA:                  -1.555
REMARK UNBOUND:                -1.260
REMARK  Name = CCCCCCCCCCCC1=C(O)C(=O)C=C(Nc2ccc(S(N)(=O)=O)cc2)C1=O                ZINC000100392813
REMARK  15 active torsions:
REMARK  status: ('A' for Active; 'I' for Inactive)
REMARK    1  A    between atoms: C_1  and  C_2
REMARK    2  A    between atoms: C_2  and  C_3
REMARK    3  A    between atoms: C_3  and  C_4
REMARK    4  A    between atoms: C_4  and  C_5
REMARK    5  A    between atoms: C_5  and  C_6
REMARK    6  A    between atoms: C_6  and  C_7
REMARK    7  A    between atoms: C_7  and  C_8
REMARK    8  A    between atoms: C_8  and  C_9
REMARK    9  A    between atoms: C_9  and  C_10
REMARK   10  A    between atoms: C_10  and  C_11
REMARK   11  A    between atoms: C_11  and  C_12
REMARK   12  A    between atoms: C_18  and  N_19
REMARK   13  A    between atoms: N_19  and  C_20
REMARK   14  A    between atoms: C_23  and  S_24
REMARK   15  A    between atoms: S_24  and  N_25
REMARK                            x       y       z     vdW  Elec       q    Type
REMARK                         _______ _______ _______ _____ _____    ______ ____
ROOT
ATOM      1  C   UNL     1       2.967   0.921 -21.645  0.00  0.00    -0.008 C 
ATOM      2  C   UNL     1       3.146   0.836 -22.930  0.00  0.00    +0.228 C 
ATOM      3  C   UNL     1       2.202   1.202 -23.744  0.00  0.00    +0.227 C 
ATOM      4  C   UNL     1       1.077   1.655 -23.273  0.00  0.00    +0.077 C 
ATOM      5  C   UNL     1       0.897   1.740 -21.989  0.00  0.00    +0.022 C 
ATOM      6  O   UNL     1       2.381   1.117 -25.029  0.00  0.00    -0.284 OA
ATOM      7  O   UNL     1       4.270   0.383 -23.401  0.00  0.00    -0.284 OA
ATOM      8  C   UNL     1       1.843   1.373 -21.174  0.00  0.00    -0.112 C 
ATOM      9  O   UNL     1       1.663   1.458 -19.890  0.00  0.00    -0.828 OA
ENDROOT
BRANCH   5  10
ATOM     10  N   UNL     1      -0.227   2.192 -21.518  0.00  0.00    -0.315 N 
ATOM     11  H   UNL     1      -0.399   2.170 -20.549  0.00  0.00    +0.152 HD
BRANCH  10  12
ATOM     12  C   UNL     1      -1.123   2.674 -22.326  0.00  0.00    +0.031 A 
ATOM     13  C   UNL     1      -1.660   1.910 -23.231  0.00  0.00    +0.025 A 
ATOM     14  C   UNL     1      -2.557   2.392 -24.040  0.00  0.00    +0.030 A 
ATOM     15  C   UNL     1      -2.916   3.637 -23.945  0.00  0.00    +0.105 A 
ATOM     16  C   UNL     1      -2.379   4.401 -23.041  0.00  0.00    +0.030 A 
ATOM     17  C   UNL     1      -1.483   3.920 -22.232  0.00  0.00    +0.025 A 
BRANCH  15  18
ATOM     18  S   UNL     1      -3.812   4.119 -24.754  0.00  0.00    +0.056 S 
ATOM     19  O   UNL     1      -2.922   4.186 -25.700  0.00  0.00    -0.153 OA
ATOM     20  O   UNL     1      -4.702   4.052 -23.808  0.00  0.00    -0.153 OA
BRANCH  18  21
ATOM     21  N   UNL     1      -4.709   4.601 -25.563  0.00  0.00    -0.204 NA
ATOM     22  H   UNL     1      -4.258   5.216 -26.241  0.00  0.00    +0.144 HD
ATOM     23  H   UNL     1      -5.170   3.835 -26.053  0.00  0.00    +0.144 HD
ENDBRANCH  18  21
ENDBRANCH  15  18
ENDBRANCH  10  12
ENDBRANCH   5  10
BRANCH   1  24
ATOM     24  C   UNL     1       3.911   0.554 -20.831  0.00  0.00    +0.038 C 
BRANCH  24  25
ATOM     25  C   UNL     1       5.094   1.086 -20.926  0.00  0.00    +0.005 C 
BRANCH  25  26
ATOM     26  C   UNL     1       5.261   2.349 -20.666  0.00  0.00    +0.000 C 
BRANCH  26  27
ATOM     27  C   UNL     1       6.080   3.057 -21.384  0.00  0.00    +0.000 C 
BRANCH  27  28
ATOM     28  C   UNL     1       5.901   3.155 -22.669  0.00  0.00    +0.000 C 
BRANCH  28  29
ATOM     29  C   UNL     1       5.676   4.316 -23.207  0.00  0.00    +0.000 C 
BRANCH  29  30
ATOM     30  C   UNL     1       4.603   4.980 -22.894  0.00  0.00    -0.000 C 
BRANCH  30  31
ATOM     31  C   UNL     1       3.436   4.539 -23.261  0.00  0.00    -0.000 C 
BRANCH  31  32
ATOM     32  C   UNL     1       2.373   5.256 -23.045  0.00  0.00    -0.000 C 
BRANCH  32  34
ATOM     33  C   UNL     1       1.477   4.524 -24.977  0.00  0.00    +0.004 C 
ATOM     34  C   UNL     1       1.366   5.188 -23.864  0.00  0.00    -0.003 C 
ENDBRANCH  32  34
ENDBRANCH  31  32
ENDBRANCH  30  31
ENDBRANCH  29  30
ENDBRANCH  28  29
ENDBRANCH  27  28
ENDBRANCH  26  27
ENDBRANCH  25  26
ENDBRANCH  24  25
ENDBRANCH   1  24
TORSDOF 14
ENDMDL
MODEL 7
REMARK VINA RESULT:    -7.533      2.004      4.008
REMARK INTER + INTRA:         -14.739
REMARK INTER:                 -13.137
REMARK INTRA:                  -1.601
REMARK UNBOUND:                -1.260
REMARK  Name = CCCCCCCCCCCC1=C(O)C(=O)C=C(Nc2ccc(S(N)(=O)=O)cc2)C1=O                ZINC000100392813
REMARK  15 active torsions:
REMARK  status: ('A' for Active; 'I' for Inactive)
REMARK    1  A    between atoms: C_1  and  C_2
REMARK    2  A    between atoms: C_2  and  C_3
REMARK    3  A    between atoms: C_3  and  C_4
REMARK    4  A    between atoms: C_4  and  C_5
REMARK    5  A    between atoms: C_5  and  C_6
REMARK    6  A    between atoms: C_6  and  C_7
REMARK    7  A    between atoms: C_7  and  C_8
REMARK    8  A    between atoms: C_8  and  C_9
REMARK    9  A    between atoms: C_9  and  C_10
REMARK   10  A    between atoms: C_10  and  C_11
REMARK   11  A    between atoms: C_11  and  C_12
REMARK   12  A    between atoms: C_18  and  N_19
REMARK   13  A    between atoms: N_19  and  C_20
REMARK   14  A    between atoms: C_23  and  S_24
REMARK   15  A    between atoms: S_24  and  N_25
REMARK                            x       y       z     vdW  Elec       q    Type
REMARK                         _______ _______ _______ _____ _____    ______ ____
ROOT
ATOM      1  C   UNL     1       1.679   1.675 -22.994  0.00  0.00    -0.008 C 
ATOM      2  C   UNL     1       2.023   1.701 -24.247  0.00  0.00    +0.228 C 
ATOM      3  C   UNL     1       1.522   2.600 -25.041  0.00  0.00    +0.227 C 
ATOM      4  C   UNL     1       0.676   3.474 -24.582  0.00  0.00    +0.077 C 
ATOM      5  C   UNL     1       0.331   3.448 -23.329  0.00  0.00    +0.022 C 
ATOM      6  O   UNL     1       1.867   2.625 -26.294  0.00  0.00    -0.284 OA
ATOM      7  O   UNL     1       2.869   0.827 -24.707  0.00  0.00    -0.284 OA
ATOM      8  C   UNL     1       0.833   2.548 -22.535  0.00  0.00    -0.112 C 
ATOM      9  O   UNL     1       0.488   2.523 -21.282  0.00  0.00    -0.828 OA
ENDROOT
BRANCH   5  10
ATOM     10  N   UNL     1      -0.515   4.321 -22.869  0.00  0.00    -0.315 N 
ATOM     11  H   UNL     1      -0.224   5.246 -22.699  0.00  0.00    +0.152 HD
BRANCH  10  12
ATOM     12  C   UNL     1      -1.745   3.973 -22.634  0.00  0.00    +0.031 A 
ATOM     13  C   UNL     1      -2.227   4.059 -21.430  0.00  0.00    +0.025 A 
ATOM     14  C   UNL     1      -3.457   3.711 -21.195  0.00  0.00    +0.030 A 
ATOM     15  C   UNL     1      -4.206   3.276 -22.164  0.00  0.00    +0.105 A 
ATOM     16  C   UNL     1      -3.725   3.190 -23.369  0.00  0.00    +0.030 A 
ATOM     17  C   UNL     1      -2.495   3.539 -23.604  0.00  0.00    +0.025 A 
BRANCH  15  18
ATOM     18  S   UNL     1      -5.436   2.928 -21.930  0.00  0.00    +0.056 S 
ATOM     19  O   UNL     1      -5.037   2.189 -20.937  0.00  0.00    -0.153 OA
ATOM     20  O   UNL     1      -5.835   3.667 -22.922  0.00  0.00    -0.153 OA
BRANCH  18  21
ATOM     21  N   UNL     1      -6.667   2.579 -21.694  0.00  0.00    -0.204 NA
ATOM     22  H   UNL     1      -6.689   1.614 -21.368  0.00  0.00    +0.144 HD
ATOM     23  H   UNL     1      -7.062   3.190 -20.979  0.00  0.00    +0.144 HD
ENDBRANCH  18  21
ENDBRANCH  15  18
ENDBRANCH  10  12
ENDBRANCH   5  10
BRANCH   1  24
ATOM     24  C   UNL     1       2.180   0.776 -22.201  0.00  0.00    +0.038 C 
BRANCH  24  25
ATOM     25  C   UNL     1       2.937   1.136 -21.206  0.00  0.00    +0.005 C 
BRANCH  25  26
ATOM     26  C   UNL     1       4.052   0.508 -20.978  0.00  0.00    +0.000 C 
BRANCH  26  27
ATOM     27  C   UNL     1       5.041   0.616 -21.813  0.00  0.00    +0.000 C 
BRANCH  27  28
ATOM     28  C   UNL     1       5.781   1.686 -21.811  0.00  0.00    +0.000 C 
BRANCH  28  29
ATOM     29  C   UNL     1       5.578   2.618 -22.695  0.00  0.00    +0.000 C 
BRANCH  29  30
ATOM     30  C   UNL     1       5.706   3.867 -22.362  0.00  0.00    -0.000 C 
BRANCH  30  31
ATOM     31  C   UNL     1       5.144   4.793 -23.082  0.00  0.00    -0.000 C 
BRANCH  31  32
ATOM     32  C   UNL     1       3.860   4.772 -23.282  0.00  0.00    -0.000 C 
BRANCH  32  34
ATOM     33  C   UNL     1       3.626   6.837 -22.414  0.00  0.00    +0.004 C 
ATOM     34  C   UNL     1       3.107   5.698 -22.767  0.00  0.00    -0.003 C 
ENDBRANCH  32  34
ENDBRANCH  31  32
ENDBRANCH  30  31
ENDBRANCH  29  30
ENDBRANCH  28  29
ENDBRANCH  27  28
ENDBRANCH  26  27
ENDBRANCH  25  26
ENDBRANCH  24  25
ENDBRANCH   1  24
TORSDOF 14
ENDMDL
MODEL 8
REMARK VINA RESULT:    -7.239      2.505      4.630
REMARK INTER + INTRA:         -14.213
REMARK INTER:                 -13.173
REMARK INTRA:                  -1.040
REMARK UNBOUND:                -1.260
REMARK  Name = CCCCCCCCCCCC1=C(O)C(=O)C=C(Nc2ccc(S(N)(=O)=O)cc2)C1=O                ZINC000100392813
REMARK  15 active torsions:
REMARK  status: ('A' for Active; 'I' for Inactive)
REMARK    1  A    between atoms: C_1  and  C_2
REMARK    2  A    between atoms: C_2  and  C_3
REMARK    3  A    between atoms: C_3  and  C_4
REMARK    4  A    between atoms: C_4  and  C_5
REMARK    5  A    between atoms: C_5  and  C_6
REMARK    6  A    between atoms: C_6  and  C_7
REMARK    7  A    between atoms: C_7  and  C_8
REMARK    8  A    between atoms: C_8  and  C_9
REMARK    9  A    between atoms: C_9  and  C_10
REMARK   10  A    between atoms: C_10  and  C_11
REMARK   11  A    between atoms: C_11  and  C_12
REMARK   12  A    between atoms: C_18  and  N_19
REMARK   13  A    between atoms: N_19  and  C_20
REMARK   14  A    between atoms: C_23  and  S_24
REMARK   15  A    between atoms: S_24  and  N_25
REMARK                            x       y       z     vdW  Elec       q    Type
REMARK                         _______ _______ _______ _____ _____    ______ ____
ROOT
ATOM      1  C   UNL     1       2.438   1.140 -22.691  0.00  0.00    -0.008 C 
ATOM      2  C   UNL     1       2.649   1.380 -23.951  0.00  0.00    +0.228 C 
ATOM      3  C   UNL     1       1.865   2.189 -24.599  0.00  0.00    +0.227 C 
ATOM      4  C   UNL     1       0.869   2.759 -23.986  0.00  0.00    +0.077 C 
ATOM      5  C   UNL     1       0.658   2.518 -22.726  0.00  0.00    +0.022 C 
ATOM      6  O   UNL     1       2.076   2.430 -25.859  0.00  0.00    -0.284 OA
ATOM      7  O   UNL     1       3.645   0.811 -24.564  0.00  0.00    -0.284 OA
ATOM      8  C   UNL     1       1.443   1.708 -22.079  0.00  0.00    -0.112 C 
ATOM      9  O   UNL     1       1.232   1.468 -20.819  0.00  0.00    -0.828 OA
ENDROOT
BRANCH   5  10
ATOM     10  N   UNL     1      -0.338   3.087 -22.114  0.00  0.00    -0.315 N 
ATOM     11  H   UNL     1      -0.270   3.298 -21.155  0.00  0.00    +0.152 HD
BRANCH  10  12
ATOM     12  C   UNL     1      -1.423   3.377 -22.768  0.00  0.00    +0.031 A 
ATOM     13  C   UNL     1      -1.419   4.345 -23.636  0.00  0.00    +0.025 A 
ATOM     14  C   UNL     1      -2.505   4.634 -24.290  0.00  0.00    +0.030 A 
ATOM     15  C   UNL     1      -3.594   3.958 -24.077  0.00  0.00    +0.105 A 
ATOM     16  C   UNL     1      -3.597   2.990 -23.209  0.00  0.00    +0.030 A 
ATOM     17  C   UNL     1      -2.512   2.700 -22.555  0.00  0.00    +0.025 A 
BRANCH  15  18
ATOM     18  S   UNL     1      -4.679   4.248 -24.731  0.00  0.00    +0.056 S 
ATOM     19  O   UNL     1      -5.394   3.850 -23.720  0.00  0.00    -0.153 OA
ATOM     20  O   UNL     1      -3.964   4.644 -25.741  0.00  0.00    -0.153 OA
BRANCH  18  21
ATOM     21  N   UNL     1      -5.765   4.538 -25.385  0.00  0.00    -0.204 NA
ATOM     22  H   UNL     1      -6.396   3.737 -25.367  0.00  0.00    +0.144 HD
ATOM     23  H   UNL     1      -6.220   5.340 -24.949  0.00  0.00    +0.144 HD
ENDBRANCH  18  21
ENDBRANCH  15  18
ENDBRANCH  10  12
ENDBRANCH   5  10
BRANCH   1  24
ATOM     24  C   UNL     1       3.222   0.330 -22.044  0.00  0.00    +0.038 C 
BRANCH  24  25
ATOM     25  C   UNL     1       4.489   0.603 -21.932  0.00  0.00    +0.005 C 
BRANCH  25  26
ATOM     26  C   UNL     1       4.922   1.272 -20.905  0.00  0.00    +0.000 C 
BRANCH  26  27
ATOM     27  C   UNL     1       5.327   2.497 -21.052  0.00  0.00    +0.000 C 
BRANCH  27  28
ATOM     28  C   UNL     1       5.823   2.888 -22.189  0.00  0.00    +0.000 C 
BRANCH  28  29
ATOM     29  C   UNL     1       5.394   3.983 -22.743  0.00  0.00    +0.000 C 
BRANCH  29  30
ATOM     30  C   UNL     1       6.242   4.842 -23.224  0.00  0.00    -0.000 C 
BRANCH  30  31
ATOM     31  C   UNL     1       7.077   5.446 -22.431  0.00  0.00    -0.000 C 
BRANCH  31  32
ATOM     32  C   UNL     1       6.673   6.434 -21.691  0.00  0.00    -0.000 C 
BRANCH  32  34
ATOM     33  C   UNL     1       7.704   5.529 -19.906  0.00  0.00    +0.004 C 
ATOM     34  C   UNL     1       6.928   6.439 -20.417  0.00  0.00    -0.003 C 
ENDBRANCH  32  34
ENDBRANCH  31  32
ENDBRANCH  30  31
ENDBRANCH  29  30
ENDBRANCH  28  29
ENDBRANCH  27  28
ENDBRANCH  26  27
ENDBRANCH  25  26
ENDBRANCH  24  25
ENDBRANCH   1  24
TORSDOF 14
ENDMDL
MODEL 9
REMARK VINA RESULT:    -7.170      4.239      7.417
REMARK INTER + INTRA:         -14.089
REMARK INTER:                 -12.829
REMARK INTRA:                  -1.260
REMARK UNBOUND:                -1.260
REMARK  Name = CCCCCCCCCCCC1=C(O)C(=O)C=C(Nc2ccc(S(N)(=O)=O)cc2)C1=O                ZINC000100392813
REMARK  15 active torsions:
REMARK  status: ('A' for Active; 'I' for Inactive)
REMARK    1  A    between atoms: C_1  and  C_2
REMARK    2  A    between atoms: C_2  and  C_3
REMARK    3  A    between atoms: C_3  and  C_4
REMARK    4  A    between atoms: C_4  and  C_5
REMARK    5  A    between atoms: C_5  and  C_6
REMARK    6  A    between atoms: C_6  and  C_7
REMARK    7  A    between atoms: C_7  and  C_8
REMARK    8  A    between atoms: C_8  and  C_9
REMARK    9  A    between atoms: C_9  and  C_10
REMARK   10  A    between atoms: C_10  and  C_11
REMARK   11  A    between atoms: C_11  and  C_12
REMARK   12  A    between atoms: C_18  and  N_19
REMARK   13  A    between atoms: N_19  and  C_20
REMARK   14  A    between atoms: C_23  and  S_24
REMARK   15  A    between atoms: S_24  and  N_25
REMARK                            x       y       z     vdW  Elec       q    Type
REMARK                         _______ _______ _______ _____ _____    ______ ____
ROOT
ATOM      1  C   UNL     1       2.009   2.655 -23.062  0.00  0.00    -0.008 C 
ATOM      2  C   UNL     1       1.533   3.844 -23.289  0.00  0.00    +0.228 C 
ATOM      3  C   UNL     1       2.342   4.846 -23.463  0.00  0.00    +0.227 C 
ATOM      4  C   UNL     1       3.628   4.660 -23.410  0.00  0.00    +0.077 C 
ATOM      5  C   UNL     1       4.104   3.472 -23.184  0.00  0.00    +0.022 C 
ATOM      6  O   UNL     1       1.865   6.034 -23.690  0.00  0.00    -0.284 OA
ATOM      7  O   UNL     1       0.247   4.030 -23.342  0.00  0.00    -0.284 OA
ATOM      8  C   UNL     1       3.294   2.470 -23.010  0.00  0.00    -0.112 C 
ATOM      9  O   UNL     1       3.771   1.281 -22.783  0.00  0.00    -0.828 OA
ENDROOT
BRANCH   5  10
ATOM     10  N   UNL     1       5.390   3.286 -23.131  0.00  0.00    -0.315 N 
ATOM     11  H   UNL     1       5.815   2.618 -23.715  0.00  0.00    +0.152 HD
BRANCH  10  12
ATOM     12  C   UNL     1       6.113   3.983 -22.306  0.00  0.00    +0.031 A 
ATOM     13  C   UNL     1       6.322   3.550 -21.099  0.00  0.00    +0.025 A 
ATOM     14  C   UNL     1       7.046   4.248 -20.274  0.00  0.00    +0.030 A 
ATOM     15  C   UNL     1       7.562   5.377 -20.657  0.00  0.00    +0.105 A 
ATOM     16  C   UNL     1       7.353   5.810 -21.864  0.00  0.00    +0.030 A 
ATOM     17  C   UNL     1       6.629   5.114 -22.689  0.00  0.00    +0.025 A 
BRANCH  15  18
ATOM     18  S   UNL     1       8.285   6.074 -19.832  0.00  0.00    +0.056 S 
ATOM     19  O   UNL     1       7.548   7.119 -20.068  0.00  0.00    -0.153 OA
ATOM     20  O   UNL     1       9.022   5.030 -19.596  0.00  0.00    -0.153 OA
BRANCH  18  21
ATOM     21  N   UNL     1       9.009   6.772 -19.007  0.00  0.00    -0.204 NA
ATOM     22  H   UNL     1       9.417   6.153 -18.307  0.00  0.00    +0.144 HD
ATOM     23  H   UNL     1       9.755   7.241 -19.523  0.00  0.00    +0.144 HD
ENDBRANCH  18  21
ENDBRANCH  15  18
ENDBRANCH  10  12
ENDBRANCH   5  10
BRANCH   1  24
ATOM     24  C   UNL     1       1.200   1.653 -22.889  0.00  0.00    +0.038 C 
BRANCH  24  25
ATOM     25  C   UNL     1       1.010   1.170 -21.696  0.00  0.00    +0.005 C 
BRANCH  25  26
ATOM     26  C   UNL     1      -0.011   1.557 -20.993  0.00  0.00    +0.000 C 
BRANCH  26  27
ATOM     27  C   UNL     1      -1.187   1.631 -21.540  0.00  0.00    +0.000 C 
BRANCH  27  28
ATOM     28  C   UNL     1      -1.976   2.626 -21.257  0.00  0.00    +0.000 C 
BRANCH  28  29
ATOM     29  C   UNL     1      -3.160   2.688 -21.789  0.00  0.00    +0.000 C 
BRANCH  29  30
ATOM     30  C   UNL     1      -3.289   2.871 -23.069  0.00  0.00    -0.000 C 
BRANCH  30  31
ATOM     31  C   UNL     1      -3.244   4.074 -23.562  0.00  0.00    -0.000 C 
BRANCH  31  32
ATOM     32  C   UNL     1      -3.696   4.303 -24.759  0.00  0.00    -0.000 C 
BRANCH  32  34
ATOM     33  C   UNL     1      -3.829   2.987 -26.582  0.00  0.00    +0.004 C 
ATOM     34  C   UNL     1      -3.130   3.741 -25.786  0.00  0.00    -0.003 C 
ENDBRANCH  32  34
ENDBRANCH  31  32
ENDBRANCH  30  31
ENDBRANCH  29  30
ENDBRANCH  28  29
ENDBRANCH  27  28
ENDBRANCH  26  27
ENDBRANCH  25  26
ENDBRANCH  24  25
ENDBRANCH   1  24
TORSDOF 14
ENDMDL
