MODEL 1
REMARK VINA RESULT:    -8.685      0.000      0.000
REMARK INTER + INTRA:          -8.239
REMARK INTER:                 -11.484
REMARK INTRA:                   3.245
REMARK UNBOUND:                 3.493
REMARK  Name = ZINC000000199433
REMARK  11 active torsions:
REMARK  status: ('A' for Active; 'I' for Inactive)
REMARK    1  A    between atoms: C_1  and  O_2
REMARK    2  A    between atoms: O_2  and  C_3
REMARK    3  A    between atoms: C_12  and  C_13
REMARK    4  A    between atoms: C_12  and  O_19
REMARK    5  A    between atoms: C_13  and  C_14
REMARK    6  A    between atoms: C_14  and  C_15
REMARK    7  A    between atoms: C_15  and  C_16
REMARK    8  A    between atoms: C_15  and  C_17
REMARK    9  A    between atoms: C_15  and  O_18
REMARK   10  A    between atoms: O_19  and  C_20
REMARK   11  A    between atoms: C_21  and  O_22
REMARK                            x       y       z     vdW  Elec       q    Type
REMARK                         _______ _______ _______ _____ _____    ______ ____
ROOT
ATOM      1  C   UNL     1       3.433   2.343 -23.238  0.00  0.00    +0.137 A 
ATOM      2  C   UNL     1       2.251   2.812 -23.501  0.00  0.00    +0.019 A 
ATOM      3  C   UNL     1       1.245   2.490 -22.742  0.00  0.00    +0.086 A 
ATOM      4  C   UNL     1       0.059   2.958 -23.002  0.00  0.00    +0.137 C 
ATOM      5  C   UNL     1      -0.116   3.746 -24.020  0.00  0.00    +0.153 C 
ATOM      6  C   UNL     1       0.888   4.068 -24.778  0.00  0.00    +0.039 C 
ATOM      7  N   UNL     1       1.421   1.702 -21.725  0.00  0.00    -0.214 NA
ATOM      8  C   UNL     1       2.606   1.235 -21.466  0.00  0.00    +0.231 A 
ATOM      9  O   UNL     1       3.042   0.444 -20.528  0.00  0.00    -0.445 OA
ATOM     10  C   UNL     1       4.318   0.278 -20.708  0.00  0.00    +0.198 A 
ATOM     11  C   UNL     1       4.672   0.963 -21.754  0.00  0.00    +0.055 A 
ATOM     12  C   UNL     1       2.072   3.599 -24.516  0.00  0.00    +0.043 C 
ATOM     13  C   UNL     1       3.613   1.554 -22.221  0.00  0.00    +0.082 A 
ENDROOT
BRANCH   5  14
ATOM     14  O   UNL     1      -1.301   4.215 -24.281  0.00  0.00    -0.389 OA
ATOM     15  H   UNL     1      -1.771   4.383 -23.450  0.00  0.00    +0.210 HD
ENDBRANCH   5  14
BRANCH   4  16
ATOM     16  O   UNL     1      -0.187   2.223 -21.923  0.00  0.00    -0.368 OA
ATOM     17  C   UNL     1      -0.879   1.125 -21.998  0.00  0.00    +0.195 C 
ENDBRANCH   4  16
BRANCH   1  19
ATOM     18  C   UNL     1       5.332   3.506 -23.568  0.00  0.00    +0.277 C 
ATOM     19  O   UNL     1       4.441   2.664 -23.997  0.00  0.00    -0.494 OA
ENDBRANCH   1  19
BRANCH   4  20
ATOM     20  C   UNL     1      -1.223   3.187 -22.906  0.00  0.00    +0.047 C 
BRANCH  20  21
ATOM     21  C   UNL     1      -1.676   3.944 -21.975  0.00  0.00    +0.037 C 
BRANCH  21  22
ATOM     22  C   UNL     1      -2.839   3.730 -21.448  0.00  0.00    +0.061 C 
ATOM     23  C   UNL     1      -2.973   3.749 -20.155  0.00  0.00    +0.041 C 
ATOM     24  C   UNL     1      -4.105   3.472 -21.574  0.00  0.00    +0.041 C 
BRANCH  22  25
ATOM     25  O   UNL     1      -3.354   3.584 -22.630  0.00  0.00    -0.389 OA
ATOM     26  H   UNL     1      -4.197   4.064 -22.677  0.00  0.00    +0.210 HD
ENDBRANCH  22  25
ENDBRANCH  21  22
ENDBRANCH  20  21
ENDBRANCH   4  20
TORSDOF 7
ENDMDL
MODEL 2
REMARK VINA RESULT:    -8.392      1.815      6.405
REMARK INTER + INTRA:          -7.843
REMARK INTER:                 -11.193
REMARK INTRA:                   3.350
REMARK UNBOUND:                 3.493
REMARK  Name = ZINC000000199433
REMARK  11 active torsions:
REMARK  status: ('A' for Active; 'I' for Inactive)
REMARK    1  A    between atoms: C_1  and  O_2
REMARK    2  A    between atoms: O_2  and  C_3
REMARK    3  A    between atoms: C_12  and  C_13
REMARK    4  A    between atoms: C_12  and  O_19
REMARK    5  A    between atoms: C_13  and  C_14
REMARK    6  A    between atoms: C_14  and  C_15
REMARK    7  A    between atoms: C_15  and  C_16
REMARK    8  A    between atoms: C_15  and  C_17
REMARK    9  A    between atoms: C_15  and  O_18
REMARK   10  A    between atoms: O_19  and  C_20
REMARK   11  A    between atoms: C_21  and  O_22
REMARK                            x       y       z     vdW  Elec       q    Type
REMARK                         _______ _______ _______ _____ _____    ______ ____
ROOT
ATOM      1  C   UNL     1      -2.479   2.654 -22.539  0.00  0.00    +0.137 A 
ATOM      2  C   UNL     1      -1.210   2.412 -22.403  0.00  0.00    +0.019 A 
ATOM      3  C   UNL     1      -0.374   2.819 -23.311  0.00  0.00    +0.086 A 
ATOM      4  C   UNL     1       0.898   2.578 -23.177  0.00  0.00    +0.137 C 
ATOM      5  C   UNL     1       1.328   1.931 -22.136  0.00  0.00    +0.153 C 
ATOM      6  C   UNL     1       0.493   1.524 -21.228  0.00  0.00    +0.039 C 
ATOM      7  N   UNL     1      -0.805   3.465 -24.352  0.00  0.00    -0.214 NA
ATOM      8  C   UNL     1      -2.075   3.705 -24.484  0.00  0.00    +0.231 A 
ATOM      9  O   UNL     1      -2.751   4.319 -25.412  0.00  0.00    -0.445 OA
ATOM     10  C   UNL     1      -4.006   4.291 -25.076  0.00  0.00    +0.198 A 
ATOM     11  C   UNL     1      -4.107   3.662 -23.944  0.00  0.00    +0.055 A 
ATOM     12  C   UNL     1      -0.778   1.766 -21.364  0.00  0.00    +0.043 C 
ATOM     13  C   UNL     1      -2.913   3.301 -23.580  0.00  0.00    +0.082 A 
ENDROOT
BRANCH   5  14
ATOM     14  O   UNL     1       2.599   1.690 -22.002  0.00  0.00    -0.389 OA
ATOM     15  H   UNL     1       3.037   1.779 -22.862  0.00  0.00    +0.210 HD
ENDBRANCH   5  14
BRANCH   4  16
ATOM     16  O   UNL     1       0.882   3.235 -24.332  0.00  0.00    -0.368 OA
ATOM     17  C   UNL     1       1.203   2.648 -25.447  0.00  0.00    +0.195 C 
ENDBRANCH   4  16
BRANCH   1  19
ATOM     18  C   UNL     1      -3.686   3.053 -20.681  0.00  0.00    +0.277 C 
ATOM     19  O   UNL     1      -3.317   2.247 -21.631  0.00  0.00    -0.494 OA
ENDBRANCH   1  19
BRANCH   4  20
ATOM     20  C   UNL     1       2.179   2.553 -23.427  0.00  0.00    +0.047 C 
BRANCH  20  21
ATOM     21  C   UNL     1       2.811   3.642 -23.674  0.00  0.00    +0.037 C 
BRANCH  21  22
ATOM     22  C   UNL     1       4.094   3.719 -23.518  0.00  0.00    +0.061 C 
ATOM     23  C   UNL     1       4.614   4.778 -22.971  0.00  0.00    +0.041 C 
ATOM     24  C   UNL     1       5.279   3.207 -23.649  0.00  0.00    +0.041 C 
BRANCH  22  25
ATOM     25  O   UNL     1       4.236   2.547 -24.056  0.00  0.00    -0.389 OA
ATOM     26  H   UNL     1       3.396   2.065 -24.006  0.00  0.00    +0.210 HD
ENDBRANCH  22  25
ENDBRANCH  21  22
ENDBRANCH  20  21
ENDBRANCH   4  20
TORSDOF 7
ENDMDL
MODEL 3
REMARK VINA RESULT:    -8.375      1.862      6.031
REMARK INTER + INTRA:          -7.820
REMARK INTER:                 -10.968
REMARK INTRA:                   3.148
REMARK UNBOUND:                 3.493
REMARK  Name = ZINC000000199433
REMARK  11 active torsions:
REMARK  status: ('A' for Active; 'I' for Inactive)
REMARK    1  A    between atoms: C_1  and  O_2
REMARK    2  A    between atoms: O_2  and  C_3
REMARK    3  A    between atoms: C_12  and  C_13
REMARK    4  A    between atoms: C_12  and  O_19
REMARK    5  A    between atoms: C_13  and  C_14
REMARK    6  A    between atoms: C_14  and  C_15
REMARK    7  A    between atoms: C_15  and  C_16
REMARK    8  A    between atoms: C_15  and  C_17
REMARK    9  A    between atoms: C_15  and  O_18
REMARK   10  A    between atoms: O_19  and  C_20
REMARK   11  A    between atoms: C_21  and  O_22
REMARK                            x       y       z     vdW  Elec       q    Type
REMARK                         _______ _______ _______ _____ _____    ______ ____
ROOT
ATOM      1  C   UNL     1      -3.312   3.619 -24.137  0.00  0.00    +0.137 A 
ATOM      2  C   UNL     1      -2.044   3.394 -24.303  0.00  0.00    +0.019 A 
ATOM      3  C   UNL     1      -1.344   2.891 -23.329  0.00  0.00    +0.086 A 
ATOM      4  C   UNL     1      -0.073   2.664 -23.493  0.00  0.00    +0.137 C 
ATOM      5  C   UNL     1       0.493   2.943 -24.629  0.00  0.00    +0.153 C 
ATOM      6  C   UNL     1      -0.206   3.445 -25.602  0.00  0.00    +0.039 C 
ATOM      7  N   UNL     1      -1.910   2.613 -22.194  0.00  0.00    -0.214 NA
ATOM      8  C   UNL     1      -3.179   2.840 -22.032  0.00  0.00    +0.231 A 
ATOM      9  O   UNL     1      -3.972   2.655 -21.016  0.00  0.00    -0.445 OA
ATOM     10  C   UNL     1      -5.162   3.045 -21.362  0.00  0.00    +0.198 A 
ATOM     11  C   UNL     1      -5.107   3.469 -22.589  0.00  0.00    +0.055 A 
ATOM     12  C   UNL     1      -1.476   3.671 -25.436  0.00  0.00    +0.043 C 
ATOM     13  C   UNL     1      -3.882   3.342 -23.001  0.00  0.00    +0.082 A 
ENDROOT
BRANCH   5  14
ATOM     14  O   UNL     1       1.763   2.717 -24.793  0.00  0.00    -0.389 OA
ATOM     15  H   UNL     1       2.021   2.962 -25.695  0.00  0.00    +0.210 HD
ENDBRANCH   5  14
BRANCH   4  16
ATOM     16  O   UNL     1      -0.246   2.257 -22.240  0.00  0.00    -0.368 OA
ATOM     17  C   UNL     1      -0.138   1.002 -21.918  0.00  0.00    +0.195 C 
ENDBRANCH   4  16
BRANCH   1  19
ATOM     18  C   UNL     1      -4.673   3.338 -25.908  0.00  0.00    +0.277 C 
ATOM     19  O   UNL     1      -4.014   4.123 -25.109  0.00  0.00    -0.494 OA
ENDBRANCH   1  19
BRANCH   4  20
ATOM     20  C   UNL     1       1.156   2.300 -23.241  0.00  0.00    +0.047 C 
BRANCH  20  21
ATOM     21  C   UNL     1       1.856   2.939 -22.377  0.00  0.00    +0.037 C 
BRANCH  21  22
ATOM     22  C   UNL     1       3.110   2.670 -22.204  0.00  0.00    +0.061 C 
ATOM     23  C   UNL     1       3.461   1.500 -21.757  0.00  0.00    +0.041 C 
ATOM     24  C   UNL     1       4.358   3.023 -22.257  0.00  0.00    +0.041 C 
BRANCH  22  25
ATOM     25  O   UNL     1       3.428   3.858 -22.616  0.00  0.00    -0.389 OA
ATOM     26  H   UNL     1       3.851   3.795 -23.488  0.00  0.00    +0.210 HD
ENDBRANCH  22  25
ENDBRANCH  21  22
ENDBRANCH  20  21
ENDBRANCH   4  20
TORSDOF 7
ENDMDL
MODEL 4
REMARK VINA RESULT:    -8.209      1.809      3.358
REMARK INTER + INTRA:          -7.596
REMARK INTER:                 -11.231
REMARK INTRA:                   3.635
REMARK UNBOUND:                 3.493
REMARK  Name = ZINC000000199433
REMARK  11 active torsions:
REMARK  status: ('A' for Active; 'I' for Inactive)
REMARK    1  A    between atoms: C_1  and  O_2
REMARK    2  A    between atoms: O_2  and  C_3
REMARK    3  A    between atoms: C_12  and  C_13
REMARK    4  A    between atoms: C_12  and  O_19
REMARK    5  A    between atoms: C_13  and  C_14
REMARK    6  A    between atoms: C_14  and  C_15
REMARK    7  A    between atoms: C_15  and  C_16
REMARK    8  A    between atoms: C_15  and  C_17
REMARK    9  A    between atoms: C_15  and  O_18
REMARK   10  A    between atoms: O_19  and  C_20
REMARK   11  A    between atoms: C_21  and  O_22
REMARK                            x       y       z     vdW  Elec       q    Type
REMARK                         _______ _______ _______ _____ _____    ______ ____
ROOT
ATOM      1  C   UNL     1       2.265   1.925 -21.723  0.00  0.00    +0.137 A 
ATOM      2  C   UNL     1       0.994   2.058 -21.958  0.00  0.00    +0.019 A 
ATOM      3  C   UNL     1       0.583   2.968 -22.790  0.00  0.00    +0.086 A 
ATOM      4  C   UNL     1      -0.690   3.103 -23.027  0.00  0.00    +0.137 C 
ATOM      5  C   UNL     1      -1.545   2.327 -22.432  0.00  0.00    +0.153 C 
ATOM      6  C   UNL     1      -1.134   1.418 -21.601  0.00  0.00    +0.039 C 
ATOM      7  N   UNL     1       1.438   3.744 -23.385  0.00  0.00    -0.214 NA
ATOM      8  C   UNL     1       2.708   3.608 -23.147  0.00  0.00    +0.231 A 
ATOM      9  O   UNL     1       3.749   4.242 -23.601  0.00  0.00    -0.445 OA
ATOM     10  C   UNL     1       4.805   3.723 -23.050  0.00  0.00    +0.198 A 
ATOM     11  C   UNL     1       4.419   2.770 -22.256  0.00  0.00    +0.055 A 
ATOM     12  C   UNL     1       0.138   1.285 -21.365  0.00  0.00    +0.043 C 
ATOM     13  C   UNL     1       3.123   2.700 -22.317  0.00  0.00    +0.082 A 
ENDROOT
BRANCH   5  14
ATOM     14  O   UNL     1      -2.817   2.462 -22.669  0.00  0.00    -0.389 OA
ATOM     15  H   UNL     1      -3.306   2.436 -21.832  0.00  0.00    +0.210 HD
ENDBRANCH   5  14
BRANCH   4  16
ATOM     16  O   UNL     1      -0.182   4.053 -23.806  0.00  0.00    -0.368 OA
ATOM     17  C   UNL     1      -0.262   5.309 -23.479  0.00  0.00    +0.195 C 
ENDBRANCH   4  16
BRANCH   1  19
ATOM     18  C   UNL     1       3.711   0.285 -21.188  0.00  0.00    +0.277 C 
ATOM     19  O   UNL     1       2.678   1.015 -20.891  0.00  0.00    -0.494 OA
ENDBRANCH   1  19
BRANCH   4  20
ATOM     20  C   UNL     1      -1.808   3.556 -23.527  0.00  0.00    +0.047 C 
BRANCH  20  21
ATOM     21  C   UNL     1      -2.002   3.543 -24.795  0.00  0.00    +0.037 C 
BRANCH  21  22
ATOM     22  C   UNL     1      -3.153   3.861 -25.297  0.00  0.00    +0.061 C 
ATOM     23  C   UNL     1      -3.623   3.187 -26.305  0.00  0.00    +0.041 C 
ATOM     24  C   UNL     1      -4.212   4.609 -25.305  0.00  0.00    +0.041 C 
BRANCH  22  25
ATOM     25  O   UNL     1      -3.274   4.817 -24.429  0.00  0.00    -0.389 OA
ATOM     26  H   UNL     1      -3.245   4.446 -23.533  0.00  0.00    +0.210 HD
ENDBRANCH  22  25
ENDBRANCH  21  22
ENDBRANCH  20  21
ENDBRANCH   4  20
TORSDOF 7
ENDMDL
MODEL 5
REMARK VINA RESULT:    -7.672      1.971      6.515
REMARK INTER + INTRA:          -6.870
REMARK INTER:                 -10.302
REMARK INTRA:                   3.432
REMARK UNBOUND:                 3.493
REMARK  Name = ZINC000000199433
REMARK  11 active torsions:
REMARK  status: ('A' for Active; 'I' for Inactive)
REMARK    1  A    between atoms: C_1  and  O_2
REMARK    2  A    between atoms: O_2  and  C_3
REMARK    3  A    between atoms: C_12  and  C_13
REMARK    4  A    between atoms: C_12  and  O_19
REMARK    5  A    between atoms: C_13  and  C_14
REMARK    6  A    between atoms: C_14  and  C_15
REMARK    7  A    between atoms: C_15  and  C_16
REMARK    8  A    between atoms: C_15  and  C_17
REMARK    9  A    between atoms: C_15  and  O_18
REMARK   10  A    between atoms: O_19  and  C_20
REMARK   11  A    between atoms: C_21  and  O_22
REMARK                            x       y       z     vdW  Elec       q    Type
REMARK                         _______ _______ _______ _____ _____    ______ ____
ROOT
ATOM      1  C   UNL     1      -3.212   2.819 -23.392  0.00  0.00    +0.137 A 
ATOM      2  C   UNL     1      -2.163   2.504 -22.695  0.00  0.00    +0.019 A 
ATOM      3  C   UNL     1      -0.985   2.556 -23.242  0.00  0.00    +0.086 A 
ATOM      4  C   UNL     1       0.069   2.241 -22.545  0.00  0.00    +0.137 C 
ATOM      5  C   UNL     1      -0.061   1.876 -21.305  0.00  0.00    +0.153 C 
ATOM      6  C   UNL     1      -1.238   1.824 -20.759  0.00  0.00    +0.039 C 
ATOM      7  N   UNL     1      -0.856   2.922 -24.481  0.00  0.00    -0.214 NA
ATOM      8  C   UNL     1      -1.908   3.236 -25.175  0.00  0.00    +0.231 A 
ATOM      9  O   UNL     1      -2.050   3.627 -26.409  0.00  0.00    -0.445 OA
ATOM     10  C   UNL     1      -3.318   3.816 -26.624  0.00  0.00    +0.198 A 
ATOM     11  C   UNL     1      -3.959   3.544 -25.527  0.00  0.00    +0.055 A 
ATOM     12  C   UNL     1      -2.289   2.139 -21.457  0.00  0.00    +0.043 C 
ATOM     13  C   UNL     1      -3.087   3.186 -24.633  0.00  0.00    +0.082 A 
ENDROOT
BRANCH   5  14
ATOM     14  O   UNL     1       0.992   1.561 -20.609  0.00  0.00    -0.389 OA
ATOM     15  H   UNL     1       0.925   0.637 -20.323  0.00  0.00    +0.210 HD
ENDBRANCH   5  14
BRANCH   4  16
ATOM     16  O   UNL     1       0.618   2.545 -23.717  0.00  0.00    -0.368 OA
ATOM     17  C   UNL     1       1.285   3.649 -23.883  0.00  0.00    +0.195 C 
ENDBRANCH   4  16
BRANCH   1  19
ATOM     18  C   UNL     1      -4.772   3.706 -22.032  0.00  0.00    +0.277 C 
ATOM     19  O   UNL     1      -4.392   2.768 -22.847  0.00  0.00    -0.494 OA
ENDBRANCH   1  19
BRANCH   4  20
ATOM     20  C   UNL     1       1.317   2.024 -22.231  0.00  0.00    +0.047 C 
BRANCH  20  21
ATOM     21  C   UNL     1       1.944   1.022 -22.729  0.00  0.00    +0.037 C 
BRANCH  21  22
ATOM     22  C   UNL     1       3.230   0.917 -22.619  0.00  0.00    +0.061 C 
ATOM     23  C   UNL     1       4.000   1.521 -23.475  0.00  0.00    +0.041 C 
ATOM     24  C   UNL     1       4.276   0.455 -22.006  0.00  0.00    +0.041 C 
BRANCH  22  25
ATOM     25  O   UNL     1       3.086   0.165 -21.573  0.00  0.00    -0.389 OA
ATOM     26  H   UNL     1       3.822  -0.465 -21.523  0.00  0.00    +0.210 HD
ENDBRANCH  22  25
ENDBRANCH  21  22
ENDBRANCH  20  21
ENDBRANCH   4  20
TORSDOF 7
ENDMDL
MODEL 6
REMARK VINA RESULT:    -7.643      1.459      2.030
REMARK INTER + INTRA:          -6.831
REMARK INTER:                 -10.486
REMARK INTRA:                   3.655
REMARK UNBOUND:                 3.493
REMARK  Name = ZINC000000199433
REMARK  11 active torsions:
REMARK  status: ('A' for Active; 'I' for Inactive)
REMARK    1  A    between atoms: C_1  and  O_2
REMARK    2  A    between atoms: O_2  and  C_3
REMARK    3  A    between atoms: C_12  and  C_13
REMARK    4  A    between atoms: C_12  and  O_19
REMARK    5  A    between atoms: C_13  and  C_14
REMARK    6  A    between atoms: C_14  and  C_15
REMARK    7  A    between atoms: C_15  and  C_16
REMARK    8  A    between atoms: C_15  and  C_17
REMARK    9  A    between atoms: C_15  and  O_18
REMARK   10  A    between atoms: O_19  and  C_20
REMARK   11  A    between atoms: C_21  and  O_22
REMARK                            x       y       z     vdW  Elec       q    Type
REMARK                         _______ _______ _______ _____ _____    ______ ____
ROOT
ATOM      1  C   UNL     1       1.837   2.234 -23.390  0.00  0.00    +0.137 A 
ATOM      2  C   UNL     1       0.717   2.752 -23.795  0.00  0.00    +0.019 A 
ATOM      3  C   UNL     1      -0.293   2.825 -22.980  0.00  0.00    +0.086 A 
ATOM      4  C   UNL     1      -1.417   3.344 -23.384  0.00  0.00    +0.137 C 
ATOM      5  C   UNL     1      -1.525   3.786 -24.600  0.00  0.00    +0.153 C 
ATOM      6  C   UNL     1      -0.516   3.713 -25.415  0.00  0.00    +0.039 C 
ATOM      7  N   UNL     1      -0.184   2.383 -21.764  0.00  0.00    -0.214 NA
ATOM      8  C   UNL     1       0.939   1.866 -21.362  0.00  0.00    +0.231 A 
ATOM      9  O   UNL     1       1.303   1.361 -20.219  0.00  0.00    -0.445 OA
ATOM     10  C   UNL     1       2.538   0.976 -20.328  0.00  0.00    +0.198 A 
ATOM     11  C   UNL     1       2.939   1.241 -21.535  0.00  0.00    +0.055 A 
ATOM     12  C   UNL     1       0.605   3.194 -25.009  0.00  0.00    +0.043 C 
ATOM     13  C   UNL     1       1.950   1.791 -22.173  0.00  0.00    +0.082 A 
ENDROOT
BRANCH   5  14
ATOM     14  O   UNL     1      -2.648   4.304 -25.004  0.00  0.00    -0.389 OA
ATOM     15  H   UNL     1      -3.214   3.605 -25.366  0.00  0.00    +0.210 HD
ENDBRANCH   5  14
BRANCH   4  16
ATOM     16  O   UNL     1      -1.717   3.028 -22.128  0.00  0.00    -0.368 OA
ATOM     17  C   UNL     1      -1.949   3.948 -21.238  0.00  0.00    +0.195 C 
ENDBRANCH   4  16
BRANCH   1  19
ATOM     18  C   UNL     1       3.917   2.865 -23.979  0.00  0.00    +0.277 C 
ATOM     19  O   UNL     1       2.849   2.160 -24.204  0.00  0.00    -0.494 OA
ENDBRANCH   1  19
BRANCH   4  20
ATOM     20  C   UNL     1      -2.653   3.763 -23.374  0.00  0.00    +0.047 C 
BRANCH  20  21
ATOM     21  C   UNL     1      -3.621   2.921 -23.370  0.00  0.00    +0.037 C 
BRANCH  21  22
ATOM     22  C   UNL     1      -4.798   3.260 -22.949  0.00  0.00    +0.061 C 
ATOM     23  C   UNL     1      -5.567   3.986 -23.705  0.00  0.00    +0.041 C 
ATOM     24  C   UNL     1      -5.719   3.237 -22.036  0.00  0.00    +0.041 C 
BRANCH  22  25
ATOM     25  O   UNL     1      -4.592   2.620 -21.840  0.00  0.00    -0.389 OA
ATOM     26  H   UNL     1      -4.079   3.178 -21.235  0.00  0.00    +0.210 HD
ENDBRANCH  22  25
ENDBRANCH  21  22
ENDBRANCH  20  21
ENDBRANCH   4  20
TORSDOF 7
ENDMDL
MODEL 7
REMARK VINA RESULT:    -7.553      1.715      6.453
REMARK INTER + INTRA:          -6.710
REMARK INTER:                 -10.004
REMARK INTRA:                   3.294
REMARK UNBOUND:                 3.493
REMARK  Name = ZINC000000199433
REMARK  11 active torsions:
REMARK  status: ('A' for Active; 'I' for Inactive)
REMARK    1  A    between atoms: C_1  and  O_2
REMARK    2  A    between atoms: O_2  and  C_3
REMARK    3  A    between atoms: C_12  and  C_13
REMARK    4  A    between atoms: C_12  and  O_19
REMARK    5  A    between atoms: C_13  and  C_14
REMARK    6  A    between atoms: C_14  and  C_15
REMARK    7  A    between atoms: C_15  and  C_16
REMARK    8  A    between atoms: C_15  and  C_17
REMARK    9  A    between atoms: C_15  and  O_18
REMARK   10  A    between atoms: O_19  and  C_20
REMARK   11  A    between atoms: C_21  and  O_22
REMARK                            x       y       z     vdW  Elec       q    Type
REMARK                         _______ _______ _______ _____ _____    ______ ____
ROOT
ATOM      1  C   UNL     1      -0.716   2.059 -22.673  0.00  0.00    +0.137 A 
ATOM      2  C   UNL     1       0.497   2.088 -22.208  0.00  0.00    +0.019 A 
ATOM      3  C   UNL     1       1.422   2.729 -22.859  0.00  0.00    +0.086 A 
ATOM      4  C   UNL     1       2.638   2.760 -22.397  0.00  0.00    +0.137 C 
ATOM      5  C   UNL     1       2.924   2.150 -21.285  0.00  0.00    +0.153 C 
ATOM      6  C   UNL     1       1.999   1.510 -20.635  0.00  0.00    +0.039 C 
ATOM      7  N   UNL     1       1.136   3.337 -23.970  0.00  0.00    -0.214 NA
ATOM      8  C   UNL     1      -0.078   3.306 -24.431  0.00  0.00    +0.231 A 
ATOM      9  O   UNL     1      -0.616   3.822 -25.498  0.00  0.00    -0.445 OA
ATOM     10  C   UNL     1      -1.875   3.500 -25.506  0.00  0.00    +0.198 A 
ATOM     11  C   UNL     1      -2.117   2.787 -24.447  0.00  0.00    +0.055 A 
ATOM     12  C   UNL     1       0.785   1.480 -21.099  0.00  0.00    +0.043 C 
ATOM     13  C   UNL     1      -1.005   2.667 -23.784  0.00  0.00    +0.082 A 
ENDROOT
BRANCH   5  14
ATOM     14  O   UNL     1       4.139   2.181 -20.823  0.00  0.00    -0.389 OA
ATOM     15  H   UNL     1       4.208   2.869 -20.143  0.00  0.00    +0.210 HD
ENDBRANCH   5  14
BRANCH   4  16
ATOM     16  O   UNL     1       2.769   3.477 -23.508  0.00  0.00    -0.368 OA
ATOM     17  C   UNL     1       2.856   4.774 -23.467  0.00  0.00    +0.195 C 
ENDBRANCH   4  16
BRANCH   1  19
ATOM     18  C   UNL     1      -2.567   2.078 -21.391  0.00  0.00    +0.277 C 
ATOM     19  O   UNL     1      -1.643   1.418 -22.022  0.00  0.00    -0.494 OA
ENDBRANCH   1  19
BRANCH   4  20
ATOM     20  C   UNL     1       3.912   3.030 -22.299  0.00  0.00    +0.047 C 
BRANCH  20  21
ATOM     21  C   UNL     1       4.724   2.659 -23.219  0.00  0.00    +0.037 C 
BRANCH  21  22
ATOM     22  C   UNL     1       5.965   3.030 -23.204  0.00  0.00    +0.061 C 
ATOM     23  C   UNL     1       6.285   4.222 -23.613  0.00  0.00    +0.041 C 
ATOM     24  C   UNL     1       7.214   2.781 -22.954  0.00  0.00    +0.041 C 
BRANCH  22  25
ATOM     25  O   UNL     1       6.310   1.875 -22.726  0.00  0.00    -0.389 OA
ATOM     26  H   UNL     1       5.667   1.598 -22.054  0.00  0.00    +0.210 HD
ENDBRANCH  22  25
ENDBRANCH  21  22
ENDBRANCH  20  21
ENDBRANCH   4  20
TORSDOF 7
ENDMDL
MODEL 8
REMARK VINA RESULT:    -7.427      2.150      6.987
REMARK INTER + INTRA:          -6.540
REMARK INTER:                  -9.833
REMARK INTRA:                   3.293
REMARK UNBOUND:                 3.493
REMARK  Name = ZINC000000199433
REMARK  11 active torsions:
REMARK  status: ('A' for Active; 'I' for Inactive)
REMARK    1  A    between atoms: C_1  and  O_2
REMARK    2  A    between atoms: O_2  and  C_3
REMARK    3  A    between atoms: C_12  and  C_13
REMARK    4  A    between atoms: C_12  and  O_19
REMARK    5  A    between atoms: C_13  and  C_14
REMARK    6  A    between atoms: C_14  and  C_15
REMARK    7  A    between atoms: C_15  and  C_16
REMARK    8  A    between atoms: C_15  and  C_17
REMARK    9  A    between atoms: C_15  and  O_18
REMARK   10  A    between atoms: O_19  and  C_20
REMARK   11  A    between atoms: C_21  and  O_22
REMARK                            x       y       z     vdW  Elec       q    Type
REMARK                         _______ _______ _______ _____ _____    ______ ____
ROOT
ATOM      1  C   UNL     1       1.295   2.202 -22.750  0.00  0.00    +0.137 A 
ATOM      2  C   UNL     1       2.586   2.084 -22.656  0.00  0.00    +0.019 A 
ATOM      3  C   UNL     1       3.351   3.087 -22.968  0.00  0.00    +0.086 A 
ATOM      4  C   UNL     1       4.644   2.971 -22.874  0.00  0.00    +0.137 C 
ATOM      5  C   UNL     1       5.166   1.853 -22.469  0.00  0.00    +0.153 C 
ATOM      6  C   UNL     1       4.401   0.850 -22.157  0.00  0.00    +0.039 C 
ATOM      7  N   UNL     1       2.829   4.205 -23.373  0.00  0.00    -0.214 NA
ATOM      8  C   UNL     1       1.538   4.320 -23.466  0.00  0.00    +0.231 A 
ATOM      9  O   UNL     1       0.778   5.309 -23.837  0.00  0.00    -0.445 OA
ATOM     10  C   UNL     1      -0.458   4.916 -23.754  0.00  0.00    +0.198 A 
ATOM     11  C   UNL     1      -0.464   3.687 -23.333  0.00  0.00    +0.055 A 
ATOM     12  C   UNL     1       3.110   0.968 -22.251  0.00  0.00    +0.043 C 
ATOM     13  C   UNL     1       0.770   3.320 -23.155  0.00  0.00    +0.082 A 
ENDROOT
BRANCH   5  14
ATOM     14  O   UNL     1       6.458   1.737 -22.375  0.00  0.00    -0.389 OA
ATOM     15  H   UNL     1       6.744   2.023 -21.494  0.00  0.00    +0.210 HD
ENDBRANCH   5  14
BRANCH   4  16
ATOM     16  O   UNL     1       4.530   4.222 -23.308  0.00  0.00    -0.368 OA
ATOM     17  C   UNL     1       4.882   5.229 -22.564  0.00  0.00    +0.195 C 
ENDBRANCH   4  16
BRANCH   1  19
ATOM     18  C   UNL     1      -0.260   1.281 -21.409  0.00  0.00    +0.277 C 
ATOM     19  O   UNL     1       0.528   1.199 -22.438  0.00  0.00    -0.494 OA
ENDBRANCH   1  19
BRANCH   4  20
ATOM     20  C   UNL     1       5.914   3.271 -22.924  0.00  0.00    +0.047 C 
BRANCH  20  21
ATOM     21  C   UNL     1       6.441   3.671 -24.023  0.00  0.00    +0.037 C 
BRANCH  21  22
ATOM     22  C   UNL     1       7.726   3.768 -24.149  0.00  0.00    +0.061 C 
ATOM     23  C   UNL     1       8.385   4.606 -23.404  0.00  0.00    +0.041 C 
ATOM     24  C   UNL     1       8.834   3.405 -24.719  0.00  0.00    +0.041 C 
BRANCH  22  25
ATOM     25  O   UNL     1       7.709   2.863 -25.078  0.00  0.00    -0.389 OA
ATOM     26  H   UNL     1       7.905   3.274 -25.934  0.00  0.00    +0.210 HD
ENDBRANCH  22  25
ENDBRANCH  21  22
ENDBRANCH  20  21
ENDBRANCH   4  20
TORSDOF 7
ENDMDL
MODEL 9
REMARK VINA RESULT:    -7.249      1.847      3.416
REMARK INTER + INTRA:          -6.298
REMARK INTER:                  -9.791
REMARK INTRA:                   3.493
REMARK UNBOUND:                 3.493
REMARK  Name = ZINC000000199433
REMARK  11 active torsions:
REMARK  status: ('A' for Active; 'I' for Inactive)
REMARK    1  A    between atoms: C_1  and  O_2
REMARK    2  A    between atoms: O_2  and  C_3
REMARK    3  A    between atoms: C_12  and  C_13
REMARK    4  A    between atoms: C_12  and  O_19
REMARK    5  A    between atoms: C_13  and  C_14
REMARK    6  A    between atoms: C_14  and  C_15
REMARK    7  A    between atoms: C_15  and  C_16
REMARK    8  A    between atoms: C_15  and  C_17
REMARK    9  A    between atoms: C_15  and  O_18
REMARK   10  A    between atoms: O_19  and  C_20
REMARK   11  A    between atoms: C_21  and  O_22
REMARK                            x       y       z     vdW  Elec       q    Type
REMARK                         _______ _______ _______ _____ _____    ______ ____
ROOT
ATOM      1  C   UNL     1       4.448   2.038 -21.638  0.00  0.00    +0.137 A 
ATOM      2  C   UNL     1       3.183   1.973 -21.928  0.00  0.00    +0.019 A 
ATOM      3  C   UNL     1       2.749   2.488 -23.040  0.00  0.00    +0.086 A 
ATOM      4  C   UNL     1       1.483   2.425 -23.334  0.00  0.00    +0.137 C 
ATOM      5  C   UNL     1       0.657   1.847 -22.514  0.00  0.00    +0.153 C 
ATOM      6  C   UNL     1       1.091   1.332 -21.403  0.00  0.00    +0.039 C 
ATOM      7  N   UNL     1       3.575   3.066 -23.859  0.00  0.00    -0.214 NA
ATOM      8  C   UNL     1       4.839   3.128 -23.564  0.00  0.00    +0.231 A 
ATOM      9  O   UNL     1       5.854   3.640 -24.198  0.00  0.00    -0.445 OA
ATOM     10  C   UNL     1       6.917   3.442 -23.477  0.00  0.00    +0.198 A 
ATOM     11  C   UNL     1       6.561   2.808 -22.400  0.00  0.00    +0.055 A 
ATOM     12  C   UNL     1       2.356   1.397 -21.112  0.00  0.00    +0.043 C 
ATOM     13  C   UNL     1       5.278   2.616 -22.455  0.00  0.00    +0.082 A 
ENDROOT
BRANCH   5  14
ATOM     14  O   UNL     1      -0.609   1.783 -22.807  0.00  0.00    -0.389 OA
ATOM     15  H   UNL     1      -1.010   1.032 -22.344  0.00  0.00    +0.210 HD
ENDBRANCH   5  14
BRANCH   4  16
ATOM     16  O   UNL     1       1.959   3.069 -24.394  0.00  0.00    -0.368 OA
ATOM     17  C   UNL     1       1.942   2.529 -25.576  0.00  0.00    +0.195 C 
ENDBRANCH   4  16
BRANCH   1  19
ATOM     18  C   UNL     1       5.249   0.277 -20.486  0.00  0.00    +0.277 C 
ATOM     19  O   UNL     1       4.884   1.523 -20.525  0.00  0.00    -0.494 OA
ENDBRANCH   1  19
BRANCH   4  20
ATOM     20  C   UNL     1       0.360   2.575 -23.984  0.00  0.00    +0.047 C 
BRANCH  20  21
ATOM     21  C   UNL     1       0.033   3.724 -24.451  0.00  0.00    +0.037 C 
BRANCH  21  22
ATOM     22  C   UNL     1      -1.091   4.280 -24.128  0.00  0.00    +0.061 C 
ATOM     23  C   UNL     1      -1.116   5.180 -23.190  0.00  0.00    +0.041 C 
ATOM     24  C   UNL     1      -2.372   4.412 -24.287  0.00  0.00    +0.041 C 
BRANCH  22  25
ATOM     25  O   UNL     1      -1.707   3.567 -25.019  0.00  0.00    -0.389 OA
ATOM     26  H   UNL     1      -2.467   3.124 -24.610  0.00  0.00    +0.210 HD
ENDBRANCH  22  25
ENDBRANCH  21  22
ENDBRANCH  20  21
ENDBRANCH   4  20
TORSDOF 7
ENDMDL
