MODEL 1
REMARK VINA RESULT:   -12.181      0.000      0.000
REMARK INTER + INTRA:         -12.181
REMARK INTER:                 -12.181
REMARK INTRA:                   0.000
REMARK UNBOUND:                 0.000
REMARK  Name = ZINC000020470298
REMARK  0 active torsions:
REMARK  status: ('A' for Active; 'I' for Inactive)
REMARK                            x       y       z     vdW  Elec       q    Type
REMARK                         _______ _______ _______ _____ _____    ______ ____
ROOT
ATOM      1  C   UNL     1      -2.788   2.356 -21.372  0.00  0.00    +0.008 A 
ATOM      2  C   UNL     1      -4.013   2.744 -21.569  0.00  0.00    +0.050 A 
ATOM      3  C   UNL     1      -4.350   3.282 -22.703  0.00  0.00    +0.167 A 
ATOM      4  C   UNL     1      -3.462   3.434 -23.640  0.00  0.00    +0.175 A 
ATOM      5  O   UNL     1      -4.046   3.989 -24.661  0.00  0.00    -0.452 OA
ATOM      6  C   UNL     1      -5.294   4.181 -24.354  0.00  0.00    +0.466 C 
ATOM      7  C   UNL     1      -2.237   3.046 -23.443  0.00  0.00    +0.046 A 
ATOM      8  C   UNL     1      -1.349   3.197 -24.380  0.00  0.00    +0.172 C 
ATOM      9  N   UNL     1      -0.124   2.810 -24.184  0.00  0.00    +0.244 N 
ATOM     10  H   UNL     1       0.633   2.890 -24.862  0.00  0.00    +0.204 HD
ATOM     11  C   UNL     1       0.765   2.960 -25.121  0.00  0.00    +0.137 C 
ATOM     12  C   UNL     1       1.989   2.573 -24.924  0.00  0.00    +0.086 C 
ATOM     13  C   UNL     1       2.327   2.034 -23.789  0.00  0.00    -0.030 A 
ATOM     14  C   UNL     1       3.552   1.647 -23.593  0.00  0.00    +0.053 A 
ATOM     15  C   UNL     1       3.889   1.108 -22.459  0.00  0.00    +0.167 A 
ATOM     16  O   UNL     1       5.021   0.646 -22.017  0.00  0.00    -0.453 OA
ATOM     17  C   UNL     1       4.832   0.209 -20.807  0.00  0.00    +0.466 C 
ATOM     18  O   UNL     1       3.584   0.401 -20.501  0.00  0.00    -0.453 OA
ATOM     19  C   UNL     1       3.001   0.957 -21.521  0.00  0.00    +0.167 A 
ATOM     20  C   UNL     1       1.775   1.344 -21.718  0.00  0.00    +0.059 A 
ATOM     21  C   UNL     1       1.438   1.883 -22.852  0.00  0.00    +0.008 A 
ATOM     22  C   UNL     1       0.214   2.271 -23.049  0.00  0.00    +0.100 C 
ATOM     23  C   UNL     1      -0.675   2.120 -22.112  0.00  0.00    +0.095 C 
ATOM     24  O   UNL     1      -5.482   3.744 -23.144  0.00  0.00    -0.453 OA
ATOM     25  C   UNL     1      -1.900   2.507 -22.309  0.00  0.00    -0.030 A 
ENDROOT
TORSDOF 0
ENDMDL
MODEL 2
REMARK VINA RESULT:   -10.818      1.068      6.854
REMARK INTER + INTRA:         -10.818
REMARK INTER:                 -10.818
REMARK INTRA:                   0.000
REMARK UNBOUND:                 0.000
REMARK  Name = ZINC000020470298
REMARK  0 active torsions:
REMARK  status: ('A' for Active; 'I' for Inactive)
REMARK                            x       y       z     vdW  Elec       q    Type
REMARK                         _______ _______ _______ _____ _____    ______ ____
ROOT
ATOM      1  C   UNL     1       1.605   1.501 -20.776  0.00  0.00    +0.008 A 
ATOM      2  C   UNL     1       2.868   1.236 -20.622  0.00  0.00    +0.050 A 
ATOM      3  C   UNL     1       3.702   1.465 -21.592  0.00  0.00    +0.167 A 
ATOM      4  C   UNL     1       3.274   1.959 -22.716  0.00  0.00    +0.175 A 
ATOM      5  O   UNL     1       4.294   2.091 -23.511  0.00  0.00    -0.452 OA
ATOM      6  C   UNL     1       5.353   1.680 -22.879  0.00  0.00    +0.466 C 
ATOM      7  C   UNL     1       2.010   2.224 -22.870  0.00  0.00    +0.046 A 
ATOM      8  C   UNL     1       1.582   2.717 -23.994  0.00  0.00    +0.172 C 
ATOM      9  N   UNL     1       0.319   2.982 -24.148  0.00  0.00    +0.244 N 
ATOM     10  H   UNL     1      -0.100   3.369 -24.993  0.00  0.00    +0.204 HD
ATOM     11  C   UNL     1      -0.110   3.476 -25.271  0.00  0.00    +0.137 C 
ATOM     12  C   UNL     1      -1.373   3.740 -25.425  0.00  0.00    +0.086 C 
ATOM     13  C   UNL     1      -2.208   3.512 -24.455  0.00  0.00    -0.030 A 
ATOM     14  C   UNL     1      -3.471   3.777 -24.609  0.00  0.00    +0.053 A 
ATOM     15  C   UNL     1      -4.306   3.548 -23.639  0.00  0.00    +0.167 A 
ATOM     16  O   UNL     1      -5.591   3.721 -23.538  0.00  0.00    -0.453 OA
ATOM     17  C   UNL     1      -5.956   3.334 -22.352  0.00  0.00    +0.466 C 
ATOM     18  O   UNL     1      -4.898   2.922 -21.720  0.00  0.00    -0.453 OA
ATOM     19  C   UNL     1      -3.878   3.055 -22.515  0.00  0.00    +0.167 A 
ATOM     20  C   UNL     1      -2.614   2.790 -22.361  0.00  0.00    +0.059 A 
ATOM     21  C   UNL     1      -1.779   3.018 -23.331  0.00  0.00    +0.008 A 
ATOM     22  C   UNL     1      -0.516   2.753 -23.177  0.00  0.00    +0.100 C 
ATOM     23  C   UNL     1      -0.087   2.260 -22.054  0.00  0.00    +0.095 C 
ATOM     24  O   UNL     1       4.987   1.293 -21.693  0.00  0.00    -0.453 OA
ATOM     25  C   UNL     1       1.176   1.995 -21.900  0.00  0.00    -0.030 A 
ENDROOT
TORSDOF 0
ENDMDL
MODEL 3
REMARK VINA RESULT:   -10.474      1.486      2.706
REMARK INTER + INTRA:         -10.474
REMARK INTER:                 -10.474
REMARK INTRA:                   0.000
REMARK UNBOUND:                 0.000
REMARK  Name = ZINC000020470298
REMARK  0 active torsions:
REMARK  status: ('A' for Active; 'I' for Inactive)
REMARK                            x       y       z     vdW  Elec       q    Type
REMARK                         _______ _______ _______ _____ _____    ______ ____
ROOT
ATOM      1  C   UNL     1      -2.190   4.388 -24.660  0.00  0.00    +0.008 A 
ATOM      2  C   UNL     1      -3.476   4.551 -24.754  0.00  0.00    +0.050 A 
ATOM      3  C   UNL     1      -4.266   4.006 -23.877  0.00  0.00    +0.167 A 
ATOM      4  C   UNL     1      -3.771   3.298 -22.906  0.00  0.00    +0.175 A 
ATOM      5  O   UNL     1      -4.758   2.869 -22.177  0.00  0.00    -0.452 OA
ATOM      6  C   UNL     1      -5.863   3.313 -22.696  0.00  0.00    +0.466 C 
ATOM      7  C   UNL     1      -2.484   3.134 -22.813  0.00  0.00    +0.046 A 
ATOM      8  C   UNL     1      -1.988   2.426 -21.842  0.00  0.00    +0.172 C 
ATOM      9  N   UNL     1      -0.702   2.263 -21.748  0.00  0.00    +0.244 N 
ATOM     10  H   UNL     1      -0.231   1.725 -21.021  0.00  0.00    +0.204 HD
ATOM     11  C   UNL     1      -0.206   1.554 -20.777  0.00  0.00    +0.137 C 
ATOM     12  C   UNL     1       1.080   1.391 -20.683  0.00  0.00    +0.086 C 
ATOM     13  C   UNL     1       1.871   1.936 -21.560  0.00  0.00    -0.030 A 
ATOM     14  C   UNL     1       3.157   1.773 -21.466  0.00  0.00    +0.053 A 
ATOM     15  C   UNL     1       3.947   2.317 -22.343  0.00  0.00    +0.167 A 
ATOM     16  O   UNL     1       5.240   2.308 -22.473  0.00  0.00    -0.453 OA
ATOM     17  C   UNL     1       5.544   3.011 -23.524  0.00  0.00    +0.466 C 
ATOM     18  O   UNL     1       4.438   3.454 -24.043  0.00  0.00    -0.453 OA
ATOM     19  C   UNL     1       3.451   3.026 -23.314  0.00  0.00    +0.167 A 
ATOM     20  C   UNL     1       2.165   3.189 -23.407  0.00  0.00    +0.059 A 
ATOM     21  C   UNL     1       1.374   2.644 -22.531  0.00  0.00    +0.008 A 
ATOM     22  C   UNL     1       0.089   2.808 -22.625  0.00  0.00    +0.100 C 
ATOM     23  C   UNL     1      -0.408   3.516 -23.595  0.00  0.00    +0.095 C 
ATOM     24  O   UNL     1      -5.560   4.015 -23.747  0.00  0.00    -0.453 OA
ATOM     25  C   UNL     1      -1.694   3.679 -23.689  0.00  0.00    -0.030 A 
ENDROOT
TORSDOF 0
ENDMDL
MODEL 4
REMARK VINA RESULT:   -10.427      1.027      7.320
REMARK INTER + INTRA:         -10.427
REMARK INTER:                 -10.427
REMARK INTRA:                   0.000
REMARK UNBOUND:                 0.000
REMARK  Name = ZINC000020470298
REMARK  0 active torsions:
REMARK  status: ('A' for Active; 'I' for Inactive)
REMARK                            x       y       z     vdW  Elec       q    Type
REMARK                         _______ _______ _______ _____ _____    ______ ____
ROOT
ATOM      1  C   UNL     1       2.701   2.939 -24.241  0.00  0.00    +0.008 A 
ATOM      2  C   UNL     1       3.918   2.554 -23.995  0.00  0.00    +0.050 A 
ATOM      3  C   UNL     1       4.168   1.817 -22.954  0.00  0.00    +0.167 A 
ATOM      4  C   UNL     1       3.202   1.465 -22.159  0.00  0.00    +0.175 A 
ATOM      5  O   UNL     1       3.710   0.740 -21.206  0.00  0.00    -0.452 OA
ATOM      6  C   UNL     1       4.989   0.644 -21.413  0.00  0.00    +0.466 C 
ATOM      7  C   UNL     1       1.985   1.851 -22.405  0.00  0.00    +0.046 A 
ATOM      8  C   UNL     1       1.019   1.499 -21.609  0.00  0.00    +0.172 C 
ATOM      9  N   UNL     1      -0.198   1.885 -21.855  0.00  0.00    +0.244 N 
ATOM     10  H   UNL     1      -1.012   1.655 -21.285  0.00  0.00    +0.204 HD
ATOM     11  C   UNL     1      -1.164   1.534 -21.060  0.00  0.00    +0.137 C 
ATOM     12  C   UNL     1      -2.381   1.919 -21.305  0.00  0.00    +0.086 C 
ATOM     13  C   UNL     1      -2.632   2.656 -22.347  0.00  0.00    -0.030 A 
ATOM     14  C   UNL     1      -3.849   3.042 -22.592  0.00  0.00    +0.053 A 
ATOM     15  C   UNL     1      -4.099   3.779 -23.633  0.00  0.00    +0.167 A 
ATOM     16  O   UNL     1      -5.204   4.287 -24.094  0.00  0.00    -0.453 OA
ATOM     17  C   UNL     1      -4.920   4.952 -25.174  0.00  0.00    +0.466 C 
ATOM     18  O   UNL     1      -3.641   4.855 -25.381  0.00  0.00    -0.453 OA
ATOM     19  C   UNL     1      -3.133   4.130 -24.429  0.00  0.00    +0.167 A 
ATOM     20  C   UNL     1      -1.916   3.745 -24.183  0.00  0.00    +0.059 A 
ATOM     21  C   UNL     1      -1.665   3.008 -23.142  0.00  0.00    +0.008 A 
ATOM     22  C   UNL     1      -0.449   2.622 -22.896  0.00  0.00    +0.100 C 
ATOM     23  C   UNL     1       0.518   2.973 -23.691  0.00  0.00    +0.095 C 
ATOM     24  O   UNL     1       5.273   1.309 -22.493  0.00  0.00    -0.453 OA
ATOM     25  C   UNL     1       1.735   2.588 -23.446  0.00  0.00    -0.030 A 
ENDROOT
TORSDOF 0
ENDMDL
MODEL 5
REMARK VINA RESULT:    -9.802      2.104      3.329
REMARK INTER + INTRA:          -9.802
REMARK INTER:                  -9.802
REMARK INTRA:                   0.000
REMARK UNBOUND:                 0.000
REMARK  Name = ZINC000020470298
REMARK  0 active torsions:
REMARK  status: ('A' for Active; 'I' for Inactive)
REMARK                            x       y       z     vdW  Elec       q    Type
REMARK                         _______ _______ _______ _____ _____    ______ ____
ROOT
ATOM      1  C   UNL     1      -0.562   4.506 -24.006  0.00  0.00    +0.008 A 
ATOM      2  C   UNL     1      -1.860   4.561 -23.971  0.00  0.00    +0.050 A 
ATOM      3  C   UNL     1      -2.522   3.777 -23.173  0.00  0.00    +0.167 A 
ATOM      4  C   UNL     1      -1.886   2.938 -22.410  0.00  0.00    +0.175 A 
ATOM      5  O   UNL     1      -2.766   2.278 -21.717  0.00  0.00    -0.452 OA
ATOM      6  C   UNL     1      -3.946   2.709 -22.051  0.00  0.00    +0.466 C 
ATOM      7  C   UNL     1      -0.587   2.884 -22.445  0.00  0.00    +0.046 A 
ATOM      8  C   UNL     1       0.049   2.045 -21.682  0.00  0.00    +0.172 C 
ATOM      9  N   UNL     1       1.346   1.991 -21.717  0.00  0.00    +0.244 N 
ATOM     10  H   UNL     1       1.922   1.365 -21.154  0.00  0.00    +0.204 HD
ATOM     11  C   UNL     1       1.983   1.152 -20.954  0.00  0.00    +0.137 C 
ATOM     12  C   UNL     1       3.281   1.098 -20.989  0.00  0.00    +0.086 C 
ATOM     13  C   UNL     1       3.944   1.882 -21.788  0.00  0.00    -0.030 A 
ATOM     14  C   UNL     1       5.242   1.827 -21.822  0.00  0.00    +0.053 A 
ATOM     15  C   UNL     1       5.904   2.611 -22.620  0.00  0.00    +0.167 A 
ATOM     16  O   UNL     1       7.177   2.753 -22.842  0.00  0.00    -0.453 OA
ATOM     17  C   UNL     1       7.328   3.679 -23.742  0.00  0.00    +0.466 C 
ATOM     18  O   UNL     1       6.148   4.110 -24.077  0.00  0.00    -0.453 OA
ATOM     19  C   UNL     1       5.268   3.450 -23.384  0.00  0.00    +0.167 A 
ATOM     20  C   UNL     1       3.969   3.504 -23.348  0.00  0.00    +0.059 A 
ATOM     21  C   UNL     1       3.307   2.720 -22.550  0.00  0.00    +0.008 A 
ATOM     22  C   UNL     1       2.009   2.775 -22.515  0.00  0.00    +0.100 C 
ATOM     23  C   UNL     1       1.373   3.613 -23.278  0.00  0.00    +0.095 C 
ATOM     24  O   UNL     1      -3.795   3.635 -22.951  0.00  0.00    -0.453 OA
ATOM     25  C   UNL     1       0.075   3.668 -23.243  0.00  0.00    -0.030 A 
ENDROOT
TORSDOF 0
ENDMDL
