MODEL 1
REMARK VINA RESULT:   -10.098      0.000      0.000
REMARK INTER + INTRA:         -10.098
REMARK INTER:                 -10.098
REMARK INTRA:                   0.000
REMARK UNBOUND:                 0.000
REMARK  Name = ZINC000004832996
REMARK  2 active torsions:
REMARK  status: ('A' for Active; 'I' for Inactive)
REMARK    1  A    between atoms: C_8  and  C_9
REMARK    2  A    between atoms: C_13  and  C_14
REMARK                            x       y       z     vdW  Elec       q    Type
REMARK                         _______ _______ _______ _____ _____    ______ ____
ROOT
ATOM      1  C   UNL     1       0.491   1.502 -21.169  0.00  0.00    +0.020 C 
ATOM      2  C   UNL     1       0.133   2.033 -22.300  0.00  0.00    +0.040 C 
ATOM      3  C   UNL     1       0.908   2.257 -23.319  0.00  0.00    +0.336 C 
ATOM      4  O   UNL     1       0.190   2.796 -24.259  0.00  0.00    -0.457 OA
ATOM      5  C   UNL     1      -1.029   2.905 -23.821  0.00  0.00    +0.189 C 
ATOM      6  C   UNL     1      -2.111   3.373 -24.368  0.00  0.00    +0.056 C 
ATOM      7  C   UNL     1      -3.230   3.370 -23.705  0.00  0.00    -0.007 C 
ATOM      8  C   UNL     1      -4.312   3.837 -24.252  0.00  0.00    +0.011 C 
ATOM      9  C   UNL     1      -5.429   3.834 -23.589  0.00  0.00    +0.001 C 
ATOM     10  C   UNL     1      -5.465   3.362 -22.378  0.00  0.00    +0.007 C 
ATOM     11  C   UNL     1      -4.383   2.894 -21.829  0.00  0.00    +0.012 C 
ATOM     12  C   UNL     1      -4.418   2.423 -20.619  0.00  0.00    +0.012 C 
ATOM     13  C   UNL     1      -3.194   3.841 -24.916  0.00  0.00    +0.016 C 
ATOM     14  C   UNL     1      -3.264   2.898 -22.493  0.00  0.00    -0.064 C 
ATOM     15  C   UNL     1      -2.182   2.430 -21.946  0.00  0.00    -0.015 C 
ATOM     16  O   UNL     1       2.178   1.989 -23.386  0.00  0.00    -0.245 OA
ATOM     17  C   UNL     1      -1.065   2.434 -22.610  0.00  0.00    +0.089 C 
ENDROOT
TORSDOF 0
ENDMDL
MODEL 2
REMARK VINA RESULT:   -10.027      0.962      2.530
REMARK INTER + INTRA:         -10.027
REMARK INTER:                 -10.027
REMARK INTRA:                   0.000
REMARK UNBOUND:                 0.000
REMARK  Name = ZINC000004832996
REMARK  2 active torsions:
REMARK  status: ('A' for Active; 'I' for Inactive)
REMARK    1  A    between atoms: C_8  and  C_9
REMARK    2  A    between atoms: C_13  and  C_14
REMARK                            x       y       z     vdW  Elec       q    Type
REMARK                         _______ _______ _______ _____ _____    ______ ____
ROOT
ATOM      1  C   UNL     1       0.570   3.352 -25.131  0.00  0.00    +0.020 C 
ATOM      2  C   UNL     1       0.145   3.027 -23.947  0.00  0.00    +0.040 C 
ATOM      3  C   UNL     1       0.877   2.590 -22.966  0.00  0.00    +0.336 C 
ATOM      4  O   UNL     1       0.098   2.375 -21.948  0.00  0.00    -0.457 OA
ATOM      5  C   UNL     1      -1.116   2.680 -22.300  0.00  0.00    +0.189 C 
ATOM      6  C   UNL     1      -2.244   2.642 -21.655  0.00  0.00    +0.056 C 
ATOM      7  C   UNL     1      -3.343   3.008 -22.245  0.00  0.00    -0.007 C 
ATOM      8  C   UNL     1      -4.471   2.971 -21.600  0.00  0.00    +0.011 C 
ATOM      9  C   UNL     1      -5.570   3.337 -22.191  0.00  0.00    +0.001 C 
ATOM     10  C   UNL     1      -5.540   3.740 -23.427  0.00  0.00    +0.007 C 
ATOM     11  C   UNL     1      -4.412   3.778 -24.072  0.00  0.00    +0.012 C 
ATOM     12  C   UNL     1      -4.383   4.181 -25.308  0.00  0.00    +0.012 C 
ATOM     13  C   UNL     1      -3.373   2.605 -21.010  0.00  0.00    +0.016 C 
ATOM     14  C   UNL     1      -3.313   3.412 -23.482  0.00  0.00    -0.064 C 
ATOM     15  C   UNL     1      -2.185   3.449 -24.126  0.00  0.00    -0.015 C 
ATOM     16  O   UNL     1       2.163   2.400 -22.997  0.00  0.00    -0.245 OA
ATOM     17  C   UNL     1      -1.087   3.083 -23.536  0.00  0.00    +0.089 C 
ENDROOT
TORSDOF 0
ENDMDL
MODEL 3
REMARK VINA RESULT:    -9.576      2.215      5.296
REMARK INTER + INTRA:          -9.576
REMARK INTER:                  -9.576
REMARK INTRA:                   0.000
REMARK UNBOUND:                 0.000
REMARK  Name = ZINC000004832996
REMARK  2 active torsions:
REMARK  status: ('A' for Active; 'I' for Inactive)
REMARK    1  A    between atoms: C_8  and  C_9
REMARK    2  A    between atoms: C_13  and  C_14
REMARK                            x       y       z     vdW  Elec       q    Type
REMARK                         _______ _______ _______ _____ _____    ______ ____
ROOT
ATOM      1  C   UNL     1      -4.663   4.260 -24.399  0.00  0.00    +0.020 C 
ATOM      2  C   UNL     1      -4.194   3.618 -23.371  0.00  0.00    +0.040 C 
ATOM      3  C   UNL     1      -4.873   3.242 -22.328  0.00  0.00    +0.336 C 
ATOM      4  O   UNL     1      -4.061   2.631 -21.518  0.00  0.00    -0.457 OA
ATOM      5  C   UNL     1      -2.879   2.629 -22.061  0.00  0.00    +0.189 C 
ATOM      6  C   UNL     1      -1.739   2.150 -21.659  0.00  0.00    +0.056 C 
ATOM      7  C   UNL     1      -0.681   2.281 -22.402  0.00  0.00    -0.007 C 
ATOM      8  C   UNL     1       0.459   1.803 -22.001  0.00  0.00    +0.011 C 
ATOM      9  C   UNL     1       1.517   1.934 -22.745  0.00  0.00    +0.001 C 
ATOM     10  C   UNL     1       1.435   2.544 -23.890  0.00  0.00    +0.007 C 
ATOM     11  C   UNL     1       0.295   3.023 -24.292  0.00  0.00    +0.012 C 
ATOM     12  C   UNL     1       0.213   3.633 -25.437  0.00  0.00    +0.012 C 
ATOM     13  C   UNL     1      -0.599   1.671 -21.257  0.00  0.00    +0.016 C 
ATOM     14  C   UNL     1      -0.764   2.892 -23.548  0.00  0.00    -0.064 C 
ATOM     15  C   UNL     1      -1.903   3.371 -23.949  0.00  0.00    -0.015 C 
ATOM     16  O   UNL     1      -6.142   3.443 -22.131  0.00  0.00    -0.245 OA
ATOM     17  C   UNL     1      -2.961   3.239 -23.206  0.00  0.00    +0.089 C 
ENDROOT
TORSDOF 0
ENDMDL
MODEL 4
REMARK VINA RESULT:    -9.447      2.118      4.642
REMARK INTER + INTRA:          -9.447
REMARK INTER:                  -9.447
REMARK INTRA:                   0.000
REMARK UNBOUND:                 0.000
REMARK  Name = ZINC000004832996
REMARK  2 active torsions:
REMARK  status: ('A' for Active; 'I' for Inactive)
REMARK    1  A    between atoms: C_8  and  C_9
REMARK    2  A    between atoms: C_13  and  C_14
REMARK                            x       y       z     vdW  Elec       q    Type
REMARK                         _______ _______ _______ _____ _____    ______ ____
ROOT
ATOM      1  C   UNL     1      -4.142   2.256 -20.595  0.00  0.00    +0.020 C 
ATOM      2  C   UNL     1      -3.969   2.776 -21.773  0.00  0.00    +0.040 C 
ATOM      3  C   UNL     1      -4.885   3.345 -22.500  0.00  0.00    +0.336 C 
ATOM      4  O   UNL     1      -4.331   3.739 -23.608  0.00  0.00    -0.457 OA
ATOM      5  C   UNL     1      -3.073   3.414 -23.565  0.00  0.00    +0.189 C 
ATOM      6  C   UNL     1      -2.102   3.583 -24.413  0.00  0.00    +0.056 C 
ATOM      7  C   UNL     1      -0.907   3.158 -24.127  0.00  0.00    -0.007 C 
ATOM      8  C   UNL     1       0.064   3.327 -24.975  0.00  0.00    +0.011 C 
ATOM      9  C   UNL     1       1.258   2.901 -24.689  0.00  0.00    +0.001 C 
ATOM     10  C   UNL     1       1.481   2.306 -23.555  0.00  0.00    +0.007 C 
ATOM     11  C   UNL     1       0.511   2.137 -22.706  0.00  0.00    +0.012 C 
ATOM     12  C   UNL     1       0.735   1.542 -21.572  0.00  0.00    +0.012 C 
ATOM     13  C   UNL     1      -1.131   3.753 -25.262  0.00  0.00    +0.016 C 
ATOM     14  C   UNL     1      -0.684   2.562 -22.992  0.00  0.00    -0.064 C 
ATOM     15  C   UNL     1      -1.655   2.393 -22.145  0.00  0.00    -0.015 C 
ATOM     16  O   UNL     1      -6.135   3.493 -22.176  0.00  0.00    -0.245 OA
ATOM     17  C   UNL     1      -2.849   2.819 -22.431  0.00  0.00    +0.089 C 
ENDROOT
TORSDOF 0
ENDMDL
MODEL 5
REMARK VINA RESULT:    -9.094      1.522      3.059
REMARK INTER + INTRA:          -9.094
REMARK INTER:                  -9.094
REMARK INTRA:                   0.000
REMARK UNBOUND:                 0.000
REMARK  Name = ZINC000004832996
REMARK  2 active torsions:
REMARK  status: ('A' for Active; 'I' for Inactive)
REMARK    1  A    between atoms: C_8  and  C_9
REMARK    2  A    between atoms: C_13  and  C_14
REMARK                            x       y       z     vdW  Elec       q    Type
REMARK                         _______ _______ _______ _____ _____    ______ ____
ROOT
ATOM      1  C   UNL     1       2.631   1.724 -23.502  0.00  0.00    +0.020 C 
ATOM      2  C   UNL     1       1.754   1.697 -22.543  0.00  0.00    +0.040 C 
ATOM      3  C   UNL     1       1.963   1.292 -21.326  0.00  0.00    +0.336 C 
ATOM      4  O   UNL     1       0.850   1.416 -20.665  0.00  0.00    -0.457 OA
ATOM      5  C   UNL     1      -0.046   1.898 -21.474  0.00  0.00    +0.189 C 
ATOM      6  C   UNL     1      -1.298   2.201 -21.303  0.00  0.00    +0.056 C 
ATOM      7  C   UNL     1      -1.993   2.678 -22.293  0.00  0.00    -0.007 C 
ATOM      8  C   UNL     1      -3.246   2.981 -22.122  0.00  0.00    +0.011 C 
ATOM      9  C   UNL     1      -3.940   3.458 -23.112  0.00  0.00    +0.001 C 
ATOM     10  C   UNL     1      -3.381   3.632 -24.273  0.00  0.00    +0.007 C 
ATOM     11  C   UNL     1      -2.129   3.329 -24.445  0.00  0.00    +0.012 C 
ATOM     12  C   UNL     1      -1.571   3.503 -25.606  0.00  0.00    +0.012 C 
ATOM     13  C   UNL     1      -2.552   2.504 -21.132  0.00  0.00    +0.016 C 
ATOM     14  C   UNL     1      -1.434   2.852 -23.454  0.00  0.00    -0.064 C 
ATOM     15  C   UNL     1      -0.182   2.549 -23.625  0.00  0.00    -0.015 C 
ATOM     16  O   UNL     1       3.087   0.842 -20.853  0.00  0.00    -0.245 OA
ATOM     17  C   UNL     1       0.512   2.072 -22.635  0.00  0.00    +0.089 C 
ENDROOT
TORSDOF 0
ENDMDL
MODEL 6
REMARK VINA RESULT:    -8.128      2.042      5.660
REMARK INTER + INTRA:          -8.128
REMARK INTER:                  -8.128
REMARK INTRA:                   0.000
REMARK UNBOUND:                 0.000
REMARK  Name = ZINC000004832996
REMARK  2 active torsions:
REMARK  status: ('A' for Active; 'I' for Inactive)
REMARK    1  A    between atoms: C_8  and  C_9
REMARK    2  A    between atoms: C_13  and  C_14
REMARK                            x       y       z     vdW  Elec       q    Type
REMARK                         _______ _______ _______ _____ _____    ______ ____
ROOT
ATOM      1  C   UNL     1      -2.432   4.524 -24.420  0.00  0.00    +0.020 C 
ATOM      2  C   UNL     1      -2.247   3.663 -23.464  0.00  0.00    +0.040 C 
ATOM      3  C   UNL     1      -3.177   3.070 -22.778  0.00  0.00    +0.336 C 
ATOM      4  O   UNL     1      -2.602   2.284 -21.916  0.00  0.00    -0.457 OA
ATOM      5  C   UNL     1      -1.316   2.392 -22.071  0.00  0.00    +0.189 C 
ATOM      6  C   UNL     1      -0.317   1.824 -21.464  0.00  0.00    +0.056 C 
ATOM      7  C   UNL     1       0.903   2.108 -21.812  0.00  0.00    -0.007 C 
ATOM      8  C   UNL     1       1.902   1.540 -21.205  0.00  0.00    +0.011 C 
ATOM      9  C   UNL     1       3.121   1.825 -21.555  0.00  0.00    +0.001 C 
ATOM     10  C   UNL     1       3.341   2.677 -22.512  0.00  0.00    +0.007 C 
ATOM     11  C   UNL     1       2.343   3.245 -23.119  0.00  0.00    +0.012 C 
ATOM     12  C   UNL     1       2.563   4.097 -24.076  0.00  0.00    +0.012 C 
ATOM     13  C   UNL     1       0.683   1.256 -20.856  0.00  0.00    +0.016 C 
ATOM     14  C   UNL     1       1.122   2.961 -22.770  0.00  0.00    -0.064 C 
ATOM     15  C   UNL     1       0.123   3.529 -23.377  0.00  0.00    -0.015 C 
ATOM     16  O   UNL     1      -4.458   3.233 -22.927  0.00  0.00    -0.245 OA
ATOM     17  C   UNL     1      -1.096   3.244 -23.027  0.00  0.00    +0.089 C 
ENDROOT
TORSDOF 0
ENDMDL
MODEL 7
REMARK VINA RESULT:    -7.921      2.869      6.689
REMARK INTER + INTRA:          -7.921
REMARK INTER:                  -7.921
REMARK INTRA:                   0.000
REMARK UNBOUND:                 0.000
REMARK  Name = ZINC000004832996
REMARK  2 active torsions:
REMARK  status: ('A' for Active; 'I' for Inactive)
REMARK    1  A    between atoms: C_8  and  C_9
REMARK    2  A    between atoms: C_13  and  C_14
REMARK                            x       y       z     vdW  Elec       q    Type
REMARK                         _______ _______ _______ _____ _____    ______ ____
ROOT
ATOM      1  C   UNL     1      -0.349   4.862 -23.587  0.00  0.00    +0.020 C 
ATOM      2  C   UNL     1      -0.088   3.627 -23.276  0.00  0.00    +0.040 C 
ATOM      3  C   UNL     1      -0.960   2.673 -23.135  0.00  0.00    +0.336 C 
ATOM      4  O   UNL     1      -0.319   1.586 -22.823  0.00  0.00    -0.457 OA
ATOM      5  C   UNL     1       0.949   1.869 -22.771  0.00  0.00    +0.189 C 
ATOM      6  C   UNL     1       1.992   1.140 -22.505  0.00  0.00    +0.056 C 
ATOM      7  C   UNL     1       3.178   1.672 -22.519  0.00  0.00    -0.007 C 
ATOM      8  C   UNL     1       4.221   0.943 -22.253  0.00  0.00    +0.011 C 
ATOM      9  C   UNL     1       5.406   1.476 -22.266  0.00  0.00    +0.001 C 
ATOM     10  C   UNL     1       5.549   2.737 -22.546  0.00  0.00    +0.007 C 
ATOM     11  C   UNL     1       4.507   3.467 -22.812  0.00  0.00    +0.012 C 
ATOM     12  C   UNL     1       4.649   4.728 -23.092  0.00  0.00    +0.012 C 
ATOM     13  C   UNL     1       3.035   0.410 -22.239  0.00  0.00    +0.016 C 
ATOM     14  C   UNL     1       3.320   2.934 -22.799  0.00  0.00    -0.064 C 
ATOM     15  C   UNL     1       2.277   3.663 -23.065  0.00  0.00    -0.015 C 
ATOM     16  O   UNL     1      -2.247   2.787 -23.281  0.00  0.00    -0.245 OA
ATOM     17  C   UNL     1       1.092   3.130 -23.051  0.00  0.00    +0.089 C 
ENDROOT
TORSDOF 0
ENDMDL
MODEL 8
REMARK VINA RESULT:    -7.737      2.746      6.227
REMARK INTER + INTRA:          -7.737
REMARK INTER:                  -7.737
REMARK INTRA:                   0.000
REMARK UNBOUND:                 0.000
REMARK  Name = ZINC000004832996
REMARK  2 active torsions:
REMARK  status: ('A' for Active; 'I' for Inactive)
REMARK    1  A    between atoms: C_8  and  C_9
REMARK    2  A    between atoms: C_13  and  C_14
REMARK                            x       y       z     vdW  Elec       q    Type
REMARK                         _______ _______ _______ _____ _____    ______ ____
ROOT
ATOM      1  C   UNL     1      -1.470   2.258 -23.216  0.00  0.00    +0.020 C 
ATOM      2  C   UNL     1      -0.657   3.259 -23.379  0.00  0.00    +0.040 C 
ATOM      3  C   UNL     1      -0.988   4.460 -23.751  0.00  0.00    +0.336 C 
ATOM      4  O   UNL     1       0.095   5.177 -23.800  0.00  0.00    -0.457 OA
ATOM      5  C   UNL     1       1.095   4.420 -23.458  0.00  0.00    +0.189 C 
ATOM      6  C   UNL     1       2.368   4.657 -23.350  0.00  0.00    +0.056 C 
ATOM      7  C   UNL     1       3.178   3.709 -22.982  0.00  0.00    -0.007 C 
ATOM      8  C   UNL     1       4.451   3.946 -22.874  0.00  0.00    +0.011 C 
ATOM      9  C   UNL     1       5.260   2.998 -22.506  0.00  0.00    +0.001 C 
ATOM     10  C   UNL     1       4.795   1.812 -22.246  0.00  0.00    +0.007 C 
ATOM     11  C   UNL     1       3.522   1.574 -22.353  0.00  0.00    +0.012 C 
ATOM     12  C   UNL     1       3.057   0.388 -22.093  0.00  0.00    +0.012 C 
ATOM     13  C   UNL     1       3.643   4.895 -23.243  0.00  0.00    +0.016 C 
ATOM     14  C   UNL     1       2.712   2.523 -22.722  0.00  0.00    -0.064 C 
ATOM     15  C   UNL     1       1.439   2.285 -22.829  0.00  0.00    -0.015 C 
ATOM     16  O   UNL     1      -2.190   4.870 -24.025  0.00  0.00    -0.245 OA
ATOM     17  C   UNL     1       0.630   3.234 -23.198  0.00  0.00    +0.089 C 
ENDROOT
TORSDOF 0
ENDMDL
MODEL 9
REMARK VINA RESULT:    -7.228      2.218      4.149
REMARK INTER + INTRA:          -7.228
REMARK INTER:                  -7.228
REMARK INTRA:                   0.000
REMARK UNBOUND:                 0.000
REMARK  Name = ZINC000004832996
REMARK  2 active torsions:
REMARK  status: ('A' for Active; 'I' for Inactive)
REMARK    1  A    between atoms: C_8  and  C_9
REMARK    2  A    between atoms: C_13  and  C_14
REMARK                            x       y       z     vdW  Elec       q    Type
REMARK                         _______ _______ _______ _____ _____    ______ ____
ROOT
ATOM      1  C   UNL     1      -5.386   3.042 -21.090  0.00  0.00    +0.020 C 
ATOM      2  C   UNL     1      -4.139   3.278 -21.370  0.00  0.00    +0.040 C 
ATOM      3  C   UNL     1      -3.186   3.477 -20.509  0.00  0.00    +0.336 C 
ATOM      4  O   UNL     1      -2.085   3.678 -21.169  0.00  0.00    -0.457 OA
ATOM      5  C   UNL     1      -2.357   3.604 -22.438  0.00  0.00    +0.189 C 
ATOM      6  C   UNL     1      -1.612   3.730 -23.495  0.00  0.00    +0.056 C 
ATOM      7  C   UNL     1      -2.137   3.609 -24.679  0.00  0.00    -0.007 C 
ATOM      8  C   UNL     1      -1.392   3.735 -25.737  0.00  0.00    +0.011 C 
ATOM      9  C   UNL     1      -1.918   3.613 -26.919  0.00  0.00    +0.001 C 
ATOM     10  C   UNL     1      -3.188   3.366 -27.044  0.00  0.00    +0.007 C 
ATOM     11  C   UNL     1      -3.934   3.240 -25.986  0.00  0.00    +0.012 C 
ATOM     12  C   UNL     1      -5.204   2.992 -26.111  0.00  0.00    +0.012 C 
ATOM     13  C   UNL     1      -0.867   3.856 -24.554  0.00  0.00    +0.016 C 
ATOM     14  C   UNL     1      -3.408   3.361 -24.803  0.00  0.00    -0.064 C 
ATOM     15  C   UNL     1      -4.153   3.235 -23.745  0.00  0.00    -0.015 C 
ATOM     16  O   UNL     1      -3.313   3.474 -19.215  0.00  0.00    -0.245 OA
ATOM     17  C   UNL     1      -3.627   3.357 -22.562  0.00  0.00    +0.089 C 
ENDROOT
TORSDOF 0
ENDMDL
