MODEL 1
REMARK VINA RESULT:    -9.005      0.000      0.000
REMARK INTER + INTRA:         -15.092
REMARK INTER:                 -13.515
REMARK INTRA:                  -1.576
REMARK UNBOUND:                -1.348
REMARK  Name = ZINC000002048921
REMARK  10 active torsions:
REMARK  status: ('A' for Active; 'I' for Inactive)
REMARK    1  A    between atoms: C_1  and  C_2
REMARK    2  A    between atoms: C_2  and  C_3
REMARK    3  A    between atoms: C_3  and  C_4
REMARK    4  A    between atoms: C_4  and  C_5
REMARK    5  A    between atoms: C_5  and  C_6
REMARK    6  A    between atoms: C_6  and  C_7
REMARK    7  A    between atoms: C_7  and  C_8
REMARK    8  A    between atoms: C_8  and  C_9
REMARK    9  A    between atoms: C_9  and  N_10
REMARK   10  A    between atoms: CA_20  and  C_21
REMARK                            x       y       z     vdW  Elec       q    Type
REMARK                         _______ _______ _______ _____ _____    ______ ____
ROOT
ATOM      1  N   UNL     1      -0.368   2.295 -22.227  0.00  0.00    -0.339 N 
ATOM      2  C   UNL     1       0.789   2.008 -21.709  0.00  0.00    +0.068 A 
ATOM      3  C   UNL     1       1.709   2.350 -22.559  0.00  0.00    -0.008 A 
ATOM      4  C   UNL     1       2.961   2.164 -22.275  0.00  0.00    +0.098 C 
ATOM      5  CA  UNL     1       3.300   1.634 -21.135  0.00  0.00    +0.114 C 
ATOM      6  N   UNL     1       2.380   1.291 -20.284  0.00  0.00    +0.238 N 
ATOM      7  H1  UNL     1       2.461   0.275 -20.250  0.00  0.00    +0.202 HD
ATOM      8  H2  UNL     1       2.565   1.809 -19.426  0.00  0.00    +0.202 HD
ATOM      9  C   UNL     1       1.119   2.851 -23.606  0.00  0.00    +0.004 A 
ATOM     10  C   UNL     1       1.587   3.333 -24.720  0.00  0.00    +0.010 A 
ATOM     11  C   UNL     1       0.769   3.780 -25.626  0.00  0.00    +0.001 A 
ATOM     12  C   UNL     1      -0.514   3.746 -25.420  0.00  0.00    +0.002 A 
ATOM     13  C   UNL     1      -0.980   3.264 -24.306  0.00  0.00    +0.026 A 
ATOM     14  C   UNL     1       1.124   1.477 -20.567  0.00  0.00    +0.185 C 
ATOM     15  C   UNL     1      -0.164   2.816 -23.398  0.00  0.00    +0.050 A 
ENDROOT
BRANCH   5  16
ATOM     16  C   UNL     1       4.554   1.447 -20.850  0.00  0.00    +0.090 C 
ATOM     17  OXT UNL     1       5.353   2.465 -20.735  0.00  0.00    -0.544 OA
ATOM     18  O   UNL     1       5.009   0.241 -20.681  0.00  0.00    -0.544 OA
ENDBRANCH   5  16
BRANCH   1  19
ATOM     19  C   UNL     1      -1.525   2.097 -21.669  0.00  0.00    +0.122 C 
BRANCH  19  20
ATOM     20  C   UNL     1      -2.036   3.003 -20.889  0.00  0.00    +0.022 C 
BRANCH  20  21
ATOM     21  C   UNL     1      -3.300   3.291 -20.968  0.00  0.00    +0.002 C 
BRANCH  21  22
ATOM     22  C   UNL     1      -4.000   2.879 -21.982  0.00  0.00    +0.000 C 
BRANCH  22  23
ATOM     23  C   UNL     1      -5.186   3.367 -22.198  0.00  0.00    +0.000 C 
BRANCH  23  24
ATOM     24  C   UNL     1      -5.531   3.729 -23.398  0.00  0.00    -0.000 C 
BRANCH  24  25
ATOM     25  C   UNL     1      -4.621   4.083 -24.257  0.00  0.00    -0.000 C 
BRANCH  25  27
ATOM     26  C   UNL     1      -4.116   2.930 -26.124  0.00  0.00    +0.004 C 
ATOM     27  C   UNL     1      -4.802   3.859 -25.524  0.00  0.00    -0.003 C 
ENDBRANCH  25  27
ENDBRANCH  24  25
ENDBRANCH  23  24
ENDBRANCH  22  23
ENDBRANCH  21  22
ENDBRANCH  20  21
ENDBRANCH  19  20
ENDBRANCH   1  19
TORSDOF 9
ENDMDL
MODEL 2
REMARK VINA RESULT:    -8.038      3.011      5.173
REMARK INTER + INTRA:         -13.616
REMARK INTER:                 -11.225
REMARK INTRA:                  -2.390
REMARK UNBOUND:                -1.348
REMARK  Name = ZINC000002048921
REMARK  10 active torsions:
REMARK  status: ('A' for Active; 'I' for Inactive)
REMARK    1  A    between atoms: C_1  and  C_2
REMARK    2  A    between atoms: C_2  and  C_3
REMARK    3  A    between atoms: C_3  and  C_4
REMARK    4  A    between atoms: C_4  and  C_5
REMARK    5  A    between atoms: C_5  and  C_6
REMARK    6  A    between atoms: C_6  and  C_7
REMARK    7  A    between atoms: C_7  and  C_8
REMARK    8  A    between atoms: C_8  and  C_9
REMARK    9  A    between atoms: C_9  and  N_10
REMARK   10  A    between atoms: CA_20  and  C_21
REMARK                            x       y       z     vdW  Elec       q    Type
REMARK                         _______ _______ _______ _____ _____    ______ ____
ROOT
ATOM      1  N   UNL     1       2.920   3.139 -24.042  0.00  0.00    -0.339 N 
ATOM      2  C   UNL     1       3.477   4.174 -23.485  0.00  0.00    +0.068 A 
ATOM      3  C   UNL     1       2.558   5.071 -23.290  0.00  0.00    -0.008 A 
ATOM      4  C   UNL     1       2.862   6.206 -22.742  0.00  0.00    +0.098 C 
ATOM      5  CA  UNL     1       4.090   6.452 -22.385  0.00  0.00    +0.114 C 
ATOM      6  N   UNL     1       5.010   5.554 -22.580  0.00  0.00    +0.238 N 
ATOM      7  H1  UNL     1       5.617   5.991 -23.273  0.00  0.00    +0.202 HD
ATOM      8  H2  UNL     1       5.411   5.341 -21.667  0.00  0.00    +0.202 HD
ATOM      9  C   UNL     1       1.430   4.590 -23.727  0.00  0.00    +0.004 A 
ATOM     10  C   UNL     1       0.228   5.085 -23.761  0.00  0.00    +0.010 A 
ATOM     11  C   UNL     1      -0.747   4.385 -24.260  0.00  0.00    +0.001 A 
ATOM     12  C   UNL     1      -0.522   3.192 -24.725  0.00  0.00    +0.002 A 
ATOM     13  C   UNL     1       0.679   2.699 -24.689  0.00  0.00    +0.026 A 
ATOM     14  C   UNL     1       4.707   4.415 -23.130  0.00  0.00    +0.185 C 
ATOM     15  C   UNL     1       1.657   3.396 -24.191  0.00  0.00    +0.050 A 
ENDROOT
BRANCH   5  16
ATOM     16  C   UNL     1       4.395   7.589 -21.836  0.00  0.00    +0.090 C 
ATOM     17  OXT UNL     1       3.981   8.700 -22.368  0.00  0.00    -0.544 OA
ATOM     18  O   UNL     1       5.114   7.615 -20.754  0.00  0.00    -0.544 OA
ENDBRANCH   5  16
BRANCH   1  19
ATOM     19  C   UNL     1       3.524   2.041 -24.388  0.00  0.00    +0.122 C 
BRANCH  19  20
ATOM     20  C   UNL     1       3.868   1.175 -23.481  0.00  0.00    +0.022 C 
BRANCH  20  21
ATOM     21  C   UNL     1       2.960   0.616 -22.738  0.00  0.00    +0.002 C 
BRANCH  21  22
ATOM     22  C   UNL     1       2.912   0.873 -21.465  0.00  0.00    +0.000 C 
BRANCH  22  23
ATOM     23  C   UNL     1       1.886   1.495 -20.965  0.00  0.00    +0.000 C 
BRANCH  23  24
ATOM     24  C   UNL     1       0.702   1.303 -21.467  0.00  0.00    -0.000 C 
BRANCH  24  25
ATOM     25  C   UNL     1      -0.272   2.108 -21.160  0.00  0.00    -0.000 C 
BRANCH  25  27
ATOM     26  C   UNL     1      -2.448   2.673 -21.289  0.00  0.00    +0.004 C 
ATOM     27  C   UNL     1      -1.468   1.886 -21.620  0.00  0.00    -0.003 C 
ENDBRANCH  25  27
ENDBRANCH  24  25
ENDBRANCH  23  24
ENDBRANCH  22  23
ENDBRANCH  21  22
ENDBRANCH  20  21
ENDBRANCH  19  20
ENDBRANCH   1  19
TORSDOF 9
ENDMDL
MODEL 3
REMARK VINA RESULT:    -7.887      3.521      6.822
REMARK INTER + INTRA:         -13.386
REMARK INTER:                 -11.772
REMARK INTRA:                  -1.614
REMARK UNBOUND:                -1.348
REMARK  Name = ZINC000002048921
REMARK  10 active torsions:
REMARK  status: ('A' for Active; 'I' for Inactive)
REMARK    1  A    between atoms: C_1  and  C_2
REMARK    2  A    between atoms: C_2  and  C_3
REMARK    3  A    between atoms: C_3  and  C_4
REMARK    4  A    between atoms: C_4  and  C_5
REMARK    5  A    between atoms: C_5  and  C_6
REMARK    6  A    between atoms: C_6  and  C_7
REMARK    7  A    between atoms: C_7  and  C_8
REMARK    8  A    between atoms: C_8  and  C_9
REMARK    9  A    between atoms: C_9  and  N_10
REMARK   10  A    between atoms: CA_20  and  C_21
REMARK                            x       y       z     vdW  Elec       q    Type
REMARK                         _______ _______ _______ _____ _____    ______ ____
ROOT
ATOM      1  N   UNL     1      -0.117   1.968 -22.539  0.00  0.00    -0.339 N 
ATOM      2  C   UNL     1      -1.379   2.260 -22.421  0.00  0.00    +0.068 A 
ATOM      3  C   UNL     1      -1.719   3.003 -23.429  0.00  0.00    -0.008 A 
ATOM      4  C   UNL     1      -2.938   3.430 -23.542  0.00  0.00    +0.098 C 
ATOM      5  CA  UNL     1      -3.827   3.114 -22.644  0.00  0.00    +0.114 C 
ATOM      6  N   UNL     1      -3.487   2.370 -21.634  0.00  0.00    +0.238 N 
ATOM      7  H1  UNL     1      -3.587   2.999 -20.838  0.00  0.00    +0.202 HD
ATOM      8  H2  UNL     1      -4.085   1.544 -21.663  0.00  0.00    +0.202 HD
ATOM      9  C   UNL     1      -0.665   3.173 -24.174  0.00  0.00    +0.004 A 
ATOM     10  C   UNL     1      -0.480   3.828 -25.283  0.00  0.00    +0.010 A 
ATOM     11  C   UNL     1       0.695   3.841 -25.838  0.00  0.00    +0.001 A 
ATOM     12  C   UNL     1       1.684   3.201 -25.288  0.00  0.00    +0.002 A 
ATOM     13  C   UNL     1       1.497   2.548 -24.181  0.00  0.00    +0.026 A 
ATOM     14  C   UNL     1      -2.265   1.941 -21.520  0.00  0.00    +0.185 C 
ATOM     15  C   UNL     1       0.323   2.532 -23.623  0.00  0.00    +0.050 A 
ENDROOT
BRANCH   5  16
ATOM     16  C   UNL     1      -5.048   3.542 -22.757  0.00  0.00    +0.090 C 
ATOM     17  OXT UNL     1      -5.410   4.207 -23.813  0.00  0.00    -0.544 OA
ATOM     18  O   UNL     1      -5.910   3.304 -21.813  0.00  0.00    -0.544 OA
ENDBRANCH   5  16
BRANCH   1  19
ATOM     19  C   UNL     1       0.579   1.241 -21.718  0.00  0.00    +0.122 C 
BRANCH  19  20
ATOM     20  C   UNL     1       1.385   1.808 -20.870  0.00  0.00    +0.022 C 
BRANCH  20  21
ATOM     21  C   UNL     1       2.620   1.414 -20.782  0.00  0.00    +0.002 C 
BRANCH  21  22
ATOM     22  C   UNL     1       3.128   0.657 -21.708  0.00  0.00    +0.000 C 
BRANCH  22  23
ATOM     23  C   UNL     1       4.349   0.852 -22.111  0.00  0.00    +0.000 C 
BRANCH  23  24
ATOM     24  C   UNL     1       4.857   2.049 -22.087  0.00  0.00    -0.000 C 
BRANCH  24  25
ATOM     25  C   UNL     1       4.965   2.731 -23.189  0.00  0.00    -0.000 C 
BRANCH  25  27
ATOM     26  C   UNL     1       5.610   4.853 -22.797  0.00  0.00    +0.004 C 
ATOM     27  C   UNL     1       4.706   4.005 -23.192  0.00  0.00    -0.003 C 
ENDBRANCH  25  27
ENDBRANCH  24  25
ENDBRANCH  23  24
ENDBRANCH  22  23
ENDBRANCH  21  22
ENDBRANCH  20  21
ENDBRANCH  19  20
ENDBRANCH   1  19
TORSDOF 9
ENDMDL
MODEL 4
REMARK VINA RESULT:    -7.527      3.350      6.055
REMARK INTER + INTRA:         -12.836
REMARK INTER:                 -10.792
REMARK INTRA:                  -2.045
REMARK UNBOUND:                -1.348
REMARK  Name = ZINC000002048921
REMARK  10 active torsions:
REMARK  status: ('A' for Active; 'I' for Inactive)
REMARK    1  A    between atoms: C_1  and  C_2
REMARK    2  A    between atoms: C_2  and  C_3
REMARK    3  A    between atoms: C_3  and  C_4
REMARK    4  A    between atoms: C_4  and  C_5
REMARK    5  A    between atoms: C_5  and  C_6
REMARK    6  A    between atoms: C_6  and  C_7
REMARK    7  A    between atoms: C_7  and  C_8
REMARK    8  A    between atoms: C_8  and  C_9
REMARK    9  A    between atoms: C_9  and  N_10
REMARK   10  A    between atoms: CA_20  and  C_21
REMARK                            x       y       z     vdW  Elec       q    Type
REMARK                         _______ _______ _______ _____ _____    ______ ____
ROOT
ATOM      1  N   UNL     1       3.465   3.106 -23.828  0.00  0.00    -0.339 N 
ATOM      2  C   UNL     1       2.207   3.146 -24.155  0.00  0.00    +0.068 A 
ATOM      3  C   UNL     1       1.744   4.318 -23.839  0.00  0.00    -0.008 A 
ATOM      4  C   UNL     1       0.501   4.610 -24.067  0.00  0.00    +0.098 C 
ATOM      5  CA  UNL     1      -0.287   3.729 -24.613  0.00  0.00    +0.114 C 
ATOM      6  N   UNL     1       0.176   2.557 -24.930  0.00  0.00    +0.238 N 
ATOM      7  H1  UNL     1      -0.328   1.931 -24.302  0.00  0.00    +0.202 HD
ATOM      8  H2  UNL     1       0.027   2.443 -25.932  0.00  0.00    +0.202 HD
ATOM      9  C   UNL     1       2.718   5.004 -23.315  0.00  0.00    +0.004 A 
ATOM     10  C   UNL     1       2.772   6.215 -22.844  0.00  0.00    +0.010 A 
ATOM     11  C   UNL     1       3.891   6.675 -22.366  0.00  0.00    +0.001 A 
ATOM     12  C   UNL     1       4.953   5.926 -22.360  0.00  0.00    +0.002 A 
ATOM     13  C   UNL     1       4.897   4.716 -22.831  0.00  0.00    +0.026 A 
ATOM     14  C   UNL     1       1.422   2.262 -24.702  0.00  0.00    +0.185 C 
ATOM     15  C   UNL     1       3.780   4.254 -23.309  0.00  0.00    +0.050 A 
ENDROOT
BRANCH   5  16
ATOM     16  C   UNL     1      -1.532   4.022 -24.841  0.00  0.00    +0.090 C 
ATOM     17  OXT UNL     1      -2.170   4.822 -24.040  0.00  0.00    -0.544 OA
ATOM     18  O   UNL     1      -2.140   3.514 -25.872  0.00  0.00    -0.544 OA
ENDBRANCH   5  16
BRANCH   1  19
ATOM     19  C   UNL     1       4.266   2.096 -23.991  0.00  0.00    +0.122 C 
BRANCH  19  20
ATOM     20  C   UNL     1       4.593   1.354 -22.975  0.00  0.00    +0.022 C 
BRANCH  20  21
ATOM     21  C   UNL     1       3.675   0.714 -22.315  0.00  0.00    +0.002 C 
BRANCH  21  22
ATOM     22  C   UNL     1       3.448   1.003 -21.069  0.00  0.00    +0.000 C 
BRANCH  22  23
ATOM     23  C   UNL     1       2.311   1.530 -20.720  0.00  0.00    +0.000 C 
BRANCH  23  24
ATOM     24  C   UNL     1       1.234   1.259 -21.396  0.00  0.00    -0.000 C 
BRANCH  24  25
ATOM     25  C   UNL     1       0.101   1.799 -21.058  0.00  0.00    -0.000 C 
BRANCH  25  27
ATOM     26  C   UNL     1      -2.045   2.252 -21.568  0.00  0.00    +0.004 C 
ATOM     27  C   UNL     1      -0.974   1.534 -21.740  0.00  0.00    -0.003 C 
ENDBRANCH  25  27
ENDBRANCH  24  25
ENDBRANCH  23  24
ENDBRANCH  22  23
ENDBRANCH  21  22
ENDBRANCH  20  21
ENDBRANCH  19  20
ENDBRANCH   1  19
TORSDOF 9
ENDMDL
MODEL 5
REMARK VINA RESULT:    -7.496      3.525      6.978
REMARK INTER + INTRA:         -12.788
REMARK INTER:                 -11.484
REMARK INTRA:                  -1.304
REMARK UNBOUND:                -1.348
REMARK  Name = ZINC000002048921
REMARK  10 active torsions:
REMARK  status: ('A' for Active; 'I' for Inactive)
REMARK    1  A    between atoms: C_1  and  C_2
REMARK    2  A    between atoms: C_2  and  C_3
REMARK    3  A    between atoms: C_3  and  C_4
REMARK    4  A    between atoms: C_4  and  C_5
REMARK    5  A    between atoms: C_5  and  C_6
REMARK    6  A    between atoms: C_6  and  C_7
REMARK    7  A    between atoms: C_7  and  C_8
REMARK    8  A    between atoms: C_8  and  C_9
REMARK    9  A    between atoms: C_9  and  N_10
REMARK   10  A    between atoms: CA_20  and  C_21
REMARK                            x       y       z     vdW  Elec       q    Type
REMARK                         _______ _______ _______ _____ _____    ______ ____
ROOT
ATOM      1  N   UNL     1       0.206   2.455 -23.761  0.00  0.00    -0.339 N 
ATOM      2  C   UNL     1      -1.031   2.605 -23.387  0.00  0.00    +0.068 A 
ATOM      3  C   UNL     1      -1.114   2.294 -22.130  0.00  0.00    -0.008 A 
ATOM      4  C   UNL     1      -2.254   2.362 -21.516  0.00  0.00    +0.098 C 
ATOM      5  CA  UNL     1      -3.320   2.744 -22.158  0.00  0.00    +0.114 C 
ATOM      6  N   UNL     1      -3.238   3.056 -23.417  0.00  0.00    +0.238 N 
ATOM      7  H1  UNL     1      -3.790   2.331 -23.873  0.00  0.00    +0.202 HD
ATOM      8  H2  UNL     1      -3.559   4.020 -23.503  0.00  0.00    +0.202 HD
ATOM      9  C   UNL     1       0.074   1.949 -21.724  0.00  0.00    +0.004 A 
ATOM     10  C   UNL     1       0.518   1.558 -20.566  0.00  0.00    +0.010 A 
ATOM     11  C   UNL     1       1.776   1.267 -20.419  0.00  0.00    +0.001 A 
ATOM     12  C   UNL     1       2.590   1.367 -21.427  0.00  0.00    +0.002 A 
ATOM     13  C   UNL     1       2.146   1.758 -22.583  0.00  0.00    +0.026 A 
ATOM     14  C   UNL     1      -2.095   2.988 -24.034  0.00  0.00    +0.185 C 
ATOM     15  C   UNL     1       0.888   2.050 -22.734  0.00  0.00    +0.050 A 
ENDROOT
BRANCH   5  16
ATOM     16  C   UNL     1      -4.462   2.813 -21.543  0.00  0.00    +0.090 C 
ATOM     17  OXT UNL     1      -4.746   1.965 -20.601  0.00  0.00    -0.544 OA
ATOM     18  O   UNL     1      -5.322   3.731 -21.871  0.00  0.00    -0.544 OA
ENDBRANCH   5  16
BRANCH   1  19
ATOM     19  C   UNL     1       0.675   2.672 -24.954  0.00  0.00    +0.122 C 
BRANCH  19  20
ATOM     20  C   UNL     1       0.859   3.890 -25.368  0.00  0.00    +0.022 C 
BRANCH  20  21
ATOM     21  C   UNL     1       1.864   4.584 -24.923  0.00  0.00    +0.002 C 
BRANCH  21  22
ATOM     22  C   UNL     1       1.734   5.298 -23.845  0.00  0.00    +0.000 C 
BRANCH  22  23
ATOM     23  C   UNL     1       2.738   5.436 -23.031  0.00  0.00    +0.000 C 
BRANCH  23  24
ATOM     24  C   UNL     1       3.744   4.614 -23.094  0.00  0.00    -0.000 C 
BRANCH  24  25
ATOM     25  C   UNL     1       4.956   5.056 -22.932  0.00  0.00    -0.000 C 
BRANCH  25  27
ATOM     26  C   UNL     1       7.175   4.814 -23.230  0.00  0.00    +0.004 C 
ATOM     27  C   UNL     1       5.965   4.350 -23.349  0.00  0.00    -0.003 C 
ENDBRANCH  25  27
ENDBRANCH  24  25
ENDBRANCH  23  24
ENDBRANCH  22  23
ENDBRANCH  21  22
ENDBRANCH  20  21
ENDBRANCH  19  20
ENDBRANCH   1  19
TORSDOF 9
ENDMDL
MODEL 6
REMARK VINA RESULT:    -7.316      3.055      4.176
REMARK INTER + INTRA:         -12.513
REMARK INTER:                 -11.410
REMARK INTRA:                  -1.103
REMARK UNBOUND:                -1.348
REMARK  Name = ZINC000002048921
REMARK  10 active torsions:
REMARK  status: ('A' for Active; 'I' for Inactive)
REMARK    1  A    between atoms: C_1  and  C_2
REMARK    2  A    between atoms: C_2  and  C_3
REMARK    3  A    between atoms: C_3  and  C_4
REMARK    4  A    between atoms: C_4  and  C_5
REMARK    5  A    between atoms: C_5  and  C_6
REMARK    6  A    between atoms: C_6  and  C_7
REMARK    7  A    between atoms: C_7  and  C_8
REMARK    8  A    between atoms: C_8  and  C_9
REMARK    9  A    between atoms: C_9  and  N_10
REMARK   10  A    between atoms: CA_20  and  C_21
REMARK                            x       y       z     vdW  Elec       q    Type
REMARK                         _______ _______ _______ _____ _____    ______ ____
ROOT
ATOM      1  N   UNL     1       2.157   4.706 -23.567  0.00  0.00    -0.339 N 
ATOM      2  C   UNL     1       3.223   5.282 -23.092  0.00  0.00    +0.068 A 
ATOM      3  C   UNL     1       4.201   4.429 -23.145  0.00  0.00    -0.008 A 
ATOM      4  C   UNL     1       5.381   4.765 -22.726  0.00  0.00    +0.098 C 
ATOM      5  CA  UNL     1       5.590   5.959 -22.251  0.00  0.00    +0.114 C 
ATOM      6  N   UNL     1       4.612   6.813 -22.198  0.00  0.00    +0.238 N 
ATOM      7  H1  UNL     1       4.473   6.946 -21.197  0.00  0.00    +0.202 HD
ATOM      8  H2  UNL     1       4.898   7.623 -22.748  0.00  0.00    +0.202 HD
ATOM      9  C   UNL     1       3.740   3.323 -23.653  0.00  0.00    +0.004 A 
ATOM     10  C   UNL     1       4.308   2.182 -23.912  0.00  0.00    +0.010 A 
ATOM     11  C   UNL     1       3.611   1.214 -24.431  0.00  0.00    +0.001 A 
ATOM     12  C   UNL     1       2.350   1.386 -24.691  0.00  0.00    +0.002 A 
ATOM     13  C   UNL     1       1.784   2.527 -24.432  0.00  0.00    +0.026 A 
ATOM     14  C   UNL     1       3.427   6.478 -22.618  0.00  0.00    +0.185 C 
ATOM     15  C   UNL     1       2.477   3.496 -23.913  0.00  0.00    +0.050 A 
ENDROOT
BRANCH   5  16
ATOM     16  C   UNL     1       6.773   6.296 -21.832  0.00  0.00    +0.090 C 
ATOM     17  OXT UNL     1       6.908   7.263 -20.974  0.00  0.00    -0.544 OA
ATOM     18  O   UNL     1       7.821   5.666 -22.271  0.00  0.00    -0.544 OA
ENDBRANCH   5  16
BRANCH   1  19
ATOM     19  C   UNL     1       0.981   5.246 -23.675  0.00  0.00    +0.122 C 
BRANCH  19  20
ATOM     20  C   UNL     1       0.015   4.863 -22.893  0.00  0.00    +0.022 C 
BRANCH  20  21
ATOM     21  C   UNL     1      -1.152   4.583 -23.391  0.00  0.00    +0.002 C 
BRANCH  21  22
ATOM     22  C   UNL     1      -1.752   3.478 -23.063  0.00  0.00    +0.000 C 
BRANCH  22  23
ATOM     23  C   UNL     1      -1.613   2.992 -21.865  0.00  0.00    +0.000 C 
BRANCH  23  24
ATOM     24  C   UNL     1      -2.578   3.109 -21.001  0.00  0.00    -0.000 C 
BRANCH  24  25
ATOM     25  C   UNL     1      -3.747   2.603 -21.261  0.00  0.00    -0.000 C 
BRANCH  25  27
ATOM     26  C   UNL     1      -5.481   3.382 -22.469  0.00  0.00    +0.004 C 
ATOM     27  C   UNL     1      -4.782   3.383 -21.372  0.00  0.00    -0.003 C 
ENDBRANCH  25  27
ENDBRANCH  24  25
ENDBRANCH  23  24
ENDBRANCH  22  23
ENDBRANCH  21  22
ENDBRANCH  20  21
ENDBRANCH  19  20
ENDBRANCH   1  19
TORSDOF 9
ENDMDL
MODEL 7
REMARK VINA RESULT:    -7.194      3.085      4.694
REMARK INTER + INTRA:         -12.328
REMARK INTER:                 -10.592
REMARK INTRA:                  -1.736
REMARK UNBOUND:                -1.348
REMARK  Name = ZINC000002048921
REMARK  10 active torsions:
REMARK  status: ('A' for Active; 'I' for Inactive)
REMARK    1  A    between atoms: C_1  and  C_2
REMARK    2  A    between atoms: C_2  and  C_3
REMARK    3  A    between atoms: C_3  and  C_4
REMARK    4  A    between atoms: C_4  and  C_5
REMARK    5  A    between atoms: C_5  and  C_6
REMARK    6  A    between atoms: C_6  and  C_7
REMARK    7  A    between atoms: C_7  and  C_8
REMARK    8  A    between atoms: C_8  and  C_9
REMARK    9  A    between atoms: C_9  and  N_10
REMARK   10  A    between atoms: CA_20  and  C_21
REMARK                            x       y       z     vdW  Elec       q    Type
REMARK                         _______ _______ _______ _____ _____    ______ ____
ROOT
ATOM      1  N   UNL     1       2.202   4.676 -23.652  0.00  0.00    -0.339 N 
ATOM      2  C   UNL     1       3.229   5.280 -23.131  0.00  0.00    +0.068 A 
ATOM      3  C   UNL     1       4.228   4.451 -23.129  0.00  0.00    -0.008 A 
ATOM      4  C   UNL     1       5.379   4.819 -22.657  0.00  0.00    +0.098 C 
ATOM      5  CA  UNL     1       5.536   6.021 -22.182  0.00  0.00    +0.114 C 
ATOM      6  N   UNL     1       4.536   6.851 -22.184  0.00  0.00    +0.238 N 
ATOM      7  H1  UNL     1       4.347   6.988 -21.192  0.00  0.00    +0.202 HD
ATOM      8  H2  UNL     1       4.830   7.664 -22.726  0.00  0.00    +0.202 HD
ATOM      9  C   UNL     1       3.819   3.331 -23.650  0.00  0.00    +0.004 A 
ATOM     10  C   UNL     1       4.425   2.202 -23.871  0.00  0.00    +0.010 A 
ATOM     11  C   UNL     1       3.778   1.214 -24.415  0.00  0.00    +0.001 A 
ATOM     12  C   UNL     1       2.527   1.354 -24.737  0.00  0.00    +0.002 A 
ATOM     13  C   UNL     1       1.922   2.482 -24.515  0.00  0.00    +0.026 A 
ATOM     14  C   UNL     1       3.382   6.484 -22.657  0.00  0.00    +0.185 C 
ATOM     15  C   UNL     1       2.567   3.472 -23.972  0.00  0.00    +0.050 A 
ENDROOT
BRANCH   5  16
ATOM     16  C   UNL     1       6.689   6.389 -21.709  0.00  0.00    +0.090 C 
ATOM     17  OXT UNL     1       6.786   6.803 -20.481  0.00  0.00    -0.544 OA
ATOM     18  O   UNL     1       7.746   6.344 -22.465  0.00  0.00    -0.544 OA
ENDBRANCH   5  16
BRANCH   1  19
ATOM     19  C   UNL     1       1.019   5.187 -23.821  0.00  0.00    +0.122 C 
BRANCH  19  20
ATOM     20  C   UNL     1       0.075   4.939 -22.963  0.00  0.00    +0.022 C 
BRANCH  20  21
ATOM     21  C   UNL     1      -1.111   4.608 -23.379  0.00  0.00    +0.002 C 
BRANCH  21  22
ATOM     22  C   UNL     1      -1.987   4.140 -22.541  0.00  0.00    +0.000 C 
BRANCH  22  23
ATOM     23  C   UNL     1      -2.044   2.863 -22.304  0.00  0.00    +0.000 C 
BRANCH  23  24
ATOM     24  C   UNL     1      -1.429   2.366 -21.271  0.00  0.00    -0.000 C 
BRANCH  24  25
ATOM     25  C   UNL     1      -0.689   1.306 -21.404  0.00  0.00    -0.000 C 
BRANCH  25  27
ATOM     26  C   UNL     1       1.410   1.583 -20.637  0.00  0.00    +0.004 C 
ATOM     27  C   UNL     1       0.586   1.427 -21.631  0.00  0.00    -0.003 C 
ENDBRANCH  25  27
ENDBRANCH  24  25
ENDBRANCH  23  24
ENDBRANCH  22  23
ENDBRANCH  21  22
ENDBRANCH  20  21
ENDBRANCH  19  20
ENDBRANCH   1  19
TORSDOF 9
ENDMDL
MODEL 8
REMARK VINA RESULT:    -6.688      3.702      7.592
REMARK INTER + INTRA:         -11.556
REMARK INTER:                 -10.225
REMARK INTRA:                  -1.331
REMARK UNBOUND:                -1.348
REMARK  Name = ZINC000002048921
REMARK  10 active torsions:
REMARK  status: ('A' for Active; 'I' for Inactive)
REMARK    1  A    between atoms: C_1  and  C_2
REMARK    2  A    between atoms: C_2  and  C_3
REMARK    3  A    between atoms: C_3  and  C_4
REMARK    4  A    between atoms: C_4  and  C_5
REMARK    5  A    between atoms: C_5  and  C_6
REMARK    6  A    between atoms: C_6  and  C_7
REMARK    7  A    between atoms: C_7  and  C_8
REMARK    8  A    between atoms: C_8  and  C_9
REMARK    9  A    between atoms: C_9  and  N_10
REMARK   10  A    between atoms: CA_20  and  C_21
REMARK                            x       y       z     vdW  Elec       q    Type
REMARK                         _______ _______ _______ _____ _____    ______ ____
ROOT
ATOM      1  N   UNL     1       0.824   2.744 -23.951  0.00  0.00    -0.339 N 
ATOM      2  C   UNL     1      -0.272   3.012 -24.599  0.00  0.00    +0.068 A 
ATOM      3  C   UNL     1      -1.277   2.734 -23.826  0.00  0.00    -0.008 A 
ATOM      4  C   UNL     1      -2.491   2.917 -24.245  0.00  0.00    +0.098 C 
ATOM      5  CA  UNL     1      -2.706   3.379 -25.442  0.00  0.00    +0.114 C 
ATOM      6  N   UNL     1      -1.700   3.658 -26.217  0.00  0.00    +0.238 N 
ATOM      7  H1  UNL     1      -1.790   2.977 -26.969  0.00  0.00    +0.202 HD
ATOM      8  H2  UNL     1      -1.781   4.645 -26.460  0.00  0.00    +0.202 HD
ATOM      9  C   UNL     1      -0.803   2.293 -22.697  0.00  0.00    +0.004 A 
ATOM     10  C   UNL     1      -1.387   1.886 -21.608  0.00  0.00    +0.010 A 
ATOM     11  C   UNL     1      -0.671   1.486 -20.599  0.00  0.00    +0.001 A 
ATOM     12  C   UNL     1       0.627   1.493 -20.678  0.00  0.00    +0.002 A 
ATOM     13  C   UNL     1       1.209   1.900 -21.766  0.00  0.00    +0.026 A 
ATOM     14  C   UNL     1      -0.482   3.476 -25.798  0.00  0.00    +0.185 C 
ATOM     15  C   UNL     1       0.495   2.300 -22.776  0.00  0.00    +0.050 A 
ENDROOT
BRANCH   5  16
ATOM     16  C   UNL     1      -3.922   3.562 -25.862  0.00  0.00    +0.090 C 
ATOM     17  OXT UNL     1      -4.573   4.634 -25.523  0.00  0.00    -0.544 OA
ATOM     18  O   UNL     1      -4.487   2.671 -26.622  0.00  0.00    -0.544 OA
ENDBRANCH   5  16
BRANCH   1  19
ATOM     19  C   UNL     1       2.034   2.895 -24.401  0.00  0.00    +0.122 C 
BRANCH  19  20
ATOM     20  C   UNL     1       2.700   1.866 -24.834  0.00  0.00    +0.022 C 
BRANCH  20  21
ATOM     21  C   UNL     1       3.852   1.571 -24.311  0.00  0.00    +0.002 C 
BRANCH  21  22
ATOM     22  C   UNL     1       3.912   0.852 -23.230  0.00  0.00    +0.000 C 
BRANCH  22  23
ATOM     23  C   UNL     1       4.778   1.141 -22.304  0.00  0.00    +0.000 C 
BRANCH  23  24
ATOM     24  C   UNL     1       5.732   1.989 -22.548  0.00  0.00    -0.000 C 
BRANCH  24  25
ATOM     25  C   UNL     1       5.867   3.047 -21.804  0.00  0.00    -0.000 C 
BRANCH  25  27
ATOM     26  C   UNL     1       5.079   4.817 -22.952  0.00  0.00    +0.004 C 
ATOM     27  C   UNL     1       6.061   4.209 -22.355  0.00  0.00    -0.003 C 
ENDBRANCH  25  27
ENDBRANCH  24  25
ENDBRANCH  23  24
ENDBRANCH  22  23
ENDBRANCH  21  22
ENDBRANCH  20  21
ENDBRANCH  19  20
ENDBRANCH   1  19
TORSDOF 9
ENDMDL
MODEL 9
REMARK VINA RESULT:    -6.466      4.002      8.245
REMARK INTER + INTRA:         -11.217
REMARK INTER:                  -9.868
REMARK INTRA:                  -1.348
REMARK UNBOUND:                -1.348
REMARK  Name = ZINC000002048921
REMARK  10 active torsions:
REMARK  status: ('A' for Active; 'I' for Inactive)
REMARK    1  A    between atoms: C_1  and  C_2
REMARK    2  A    between atoms: C_2  and  C_3
REMARK    3  A    between atoms: C_3  and  C_4
REMARK    4  A    between atoms: C_4  and  C_5
REMARK    5  A    between atoms: C_5  and  C_6
REMARK    6  A    between atoms: C_6  and  C_7
REMARK    7  A    between atoms: C_7  and  C_8
REMARK    8  A    between atoms: C_8  and  C_9
REMARK    9  A    between atoms: C_9  and  N_10
REMARK   10  A    between atoms: CA_20  and  C_21
REMARK                            x       y       z     vdW  Elec       q    Type
REMARK                         _______ _______ _______ _____ _____    ______ ____
ROOT
ATOM      1  N   UNL     1       3.810   3.849 -22.795  0.00  0.00    -0.339 N 
ATOM      2  C   UNL     1       2.569   3.978 -23.161  0.00  0.00    +0.068 A 
ATOM      3  C   UNL     1       1.924   2.916 -22.785  0.00  0.00    -0.008 A 
ATOM      4  C   UNL     1       0.657   2.801 -23.035  0.00  0.00    +0.098 C 
ATOM      5  CA  UNL     1       0.026   3.751 -23.664  0.00  0.00    +0.114 C 
ATOM      6  N   UNL     1       0.671   4.814 -24.040  0.00  0.00    +0.238 N 
ATOM      7  H1  UNL     1       0.640   4.757 -25.058  0.00  0.00    +0.202 HD
ATOM      8  H2  UNL     1       0.212   5.609 -23.597  0.00  0.00    +0.202 HD
ATOM      9  C   UNL     1       2.768   2.127 -22.185  0.00  0.00    +0.004 A 
ATOM     10  C   UNL     1       2.624   0.958 -21.634  0.00  0.00    +0.010 A 
ATOM     11  C   UNL     1       3.647   0.368 -21.090  0.00  0.00    +0.001 A 
ATOM     12  C   UNL     1       4.812   0.945 -21.097  0.00  0.00    +0.002 A 
ATOM     13  C   UNL     1       4.954   2.113 -21.648  0.00  0.00    +0.026 A 
ATOM     14  C   UNL     1       1.942   4.931 -23.791  0.00  0.00    +0.185 C 
ATOM     15  C   UNL     1       3.933   2.705 -22.192  0.00  0.00    +0.050 A 
ENDROOT
BRANCH   5  16
ATOM     16  C   UNL     1      -1.244   3.636 -23.914  0.00  0.00    +0.090 C 
ATOM     17  OXT UNL     1      -1.773   2.459 -24.067  0.00  0.00    -0.544 OA
ATOM     18  O   UNL     1      -1.985   4.699 -24.011  0.00  0.00    -0.544 OA
ENDBRANCH   5  16
BRANCH   1  19
ATOM     19  C   UNL     1       4.761   4.712 -22.998  0.00  0.00    +0.122 C 
BRANCH  19  20
ATOM     20  C   UNL     1       5.845   4.352 -23.618  0.00  0.00    +0.022 C 
BRANCH  20  21
ATOM     21  C   UNL     1       6.990   4.863 -23.276  0.00  0.00    +0.002 C 
BRANCH  21  22
ATOM     22  C   UNL     1       7.741   4.254 -22.407  0.00  0.00    +0.000 C 
BRANCH  22  23
ATOM     23  C   UNL     1       8.134   4.878 -21.336  0.00  0.00    +0.000 C 
BRANCH  23  24
ATOM     24  C   UNL     1       7.291   5.112 -20.374  0.00  0.00    -0.000 C 
BRANCH  24  25
ATOM     25  C   UNL     1       7.266   6.280 -19.802  0.00  0.00    -0.000 C 
BRANCH  25  27
ATOM     26  C   UNL     1       5.778   7.678 -20.750  0.00  0.00    +0.004 C 
ATOM     27  C   UNL     1       7.010   7.343 -20.506  0.00  0.00    -0.003 C 
ENDBRANCH  25  27
ENDBRANCH  24  25
ENDBRANCH  23  24
ENDBRANCH  22  23
ENDBRANCH  21  22
ENDBRANCH  20  21
ENDBRANCH  19  20
ENDBRANCH   1  19
TORSDOF 9
ENDMDL
