MODEL 1
REMARK VINA RESULT:    -8.718      0.000      0.000
REMARK INTER + INTRA:          -3.654
REMARK INTER:                  -9.012
REMARK INTRA:                   5.358
REMARK UNBOUND:                 5.319
REMARK  Name = CC1(C)[C@@H]2C[C@@H](N3CCOCC3)[C@](C)(O)C[C@H]21                     ZINC000106755958
REMARK  5 active torsions:
REMARK  status: ('A' for Active; 'I' for Inactive)
REMARK    1  A    between atoms: C_1  and  C_2
REMARK    2  A    between atoms: C_2  and  C_3
REMARK    3  A    between atoms: C_6  and  N_7
REMARK    4  A    between atoms: C_13  and  C_14
REMARK    5  A    between atoms: C_13  and  O_15
REMARK                            x       y       z     vdW  Elec       q    Type
REMARK                         _______ _______ _______ _____ _____    ______ ____
ROOT
ATOM      1  C   UNL     1      -4.239   3.671 -21.441  0.00  0.00    +0.011 C 
ATOM      2  C   UNL     1      -3.840   3.581 -22.675  0.00  0.00    -0.028 C 
ATOM      3  C   UNL     1      -2.555   3.686 -22.505  0.00  0.00    +0.004 C 
ATOM      4  C   UNL     1      -1.271   3.791 -22.336  0.00  0.00    +0.061 C 
ATOM      5  C   UNL     1      -0.474   3.748 -23.362  0.00  0.00    +0.097 C 
ATOM      6  C   UNL     1      -0.962   3.601 -24.558  0.00  0.00    +0.106 C 
ATOM      7  C   UNL     1      -2.247   3.496 -24.727  0.00  0.00    +0.044 C 
ATOM      8  C   UNL     1       0.306   3.662 -24.838  0.00  0.00    +0.047 C 
ATOM      9  C   UNL     1      -4.987   3.445 -23.273  0.00  0.00    +0.011 C 
ATOM     10  C   UNL     1      -3.043   3.539 -23.701  0.00  0.00    +0.002 C 
ENDROOT
BRANCH   5  11
ATOM     11  N   UNL     1       0.810   3.853 -23.193  0.00  0.00    +0.243 N 
ATOM     12  H   UNL     1      -0.092   4.279 -23.407  0.00  0.00    +0.204 HD
ATOM     13  C   UNL     1       1.391   5.008 -23.326  0.00  0.00    +0.160 C 
ATOM     14  C   UNL     1       2.676   5.114 -23.157  0.00  0.00    +0.210 C 
ATOM     15  O   UNL     1       3.380   4.063 -22.854  0.00  0.00    -0.369 OA
ATOM     16  C   UNL     1       2.798   2.908 -22.721  0.00  0.00    +0.210 C 
ATOM     17  C   UNL     1       1.514   2.803 -22.890  0.00  0.00    +0.160 C 
ENDBRANCH   5  11
BRANCH   6  18
ATOM     18  O   UNL     1      -1.010   3.474 -25.851  0.00  0.00    -0.383 OA
ATOM     19  H   UNL     1      -0.143   3.691 -26.229  0.00  0.00    +0.210 HD
ENDBRANCH   6  18
TORSDOF 2
ENDMDL
MODEL 2
REMARK VINA RESULT:    -8.528      1.600      2.191
REMARK INTER + INTRA:          -3.458
REMARK INTER:                  -8.774
REMARK INTRA:                   5.316
REMARK UNBOUND:                 5.319
REMARK  Name = CC1(C)[C@@H]2C[C@@H](N3CCOCC3)[C@](C)(O)C[C@H]21                     ZINC000106755958
REMARK  5 active torsions:
REMARK  status: ('A' for Active; 'I' for Inactive)
REMARK    1  A    between atoms: C_1  and  C_2
REMARK    2  A    between atoms: C_2  and  C_3
REMARK    3  A    between atoms: C_6  and  N_7
REMARK    4  A    between atoms: C_13  and  C_14
REMARK    5  A    between atoms: C_13  and  O_15
REMARK                            x       y       z     vdW  Elec       q    Type
REMARK                         _______ _______ _______ _____ _____    ______ ____
ROOT
ATOM      1  C   UNL     1      -5.187   4.272 -24.280  0.00  0.00    +0.011 C 
ATOM      2  C   UNL     1      -4.590   3.695 -23.281  0.00  0.00    -0.028 C 
ATOM      3  C   UNL     1      -3.352   3.813 -23.659  0.00  0.00    +0.004 C 
ATOM      4  C   UNL     1      -2.114   3.932 -24.037  0.00  0.00    +0.061 C 
ATOM      5  C   UNL     1      -1.158   3.465 -23.288  0.00  0.00    +0.097 C 
ATOM      6  C   UNL     1      -1.441   2.881 -22.162  0.00  0.00    +0.106 C 
ATOM      7  C   UNL     1      -2.680   2.763 -21.784  0.00  0.00    +0.044 C 
ATOM      8  C   UNL     1      -0.145   2.785 -22.147  0.00  0.00    +0.047 C 
ATOM      9  C   UNL     1      -5.621   3.376 -22.555  0.00  0.00    +0.011 C 
ATOM     10  C   UNL     1      -3.635   3.229 -22.532  0.00  0.00    +0.002 C 
ENDROOT
BRANCH   5  11
ATOM     11  N   UNL     1       0.080   3.583 -23.666  0.00  0.00    +0.243 N 
ATOM     12  H   UNL     1      -0.731   3.948 -23.165  0.00  0.00    +0.204 HD
ATOM     13  C   UNL     1       0.769   4.628 -23.316  0.00  0.00    +0.160 C 
ATOM     14  C   UNL     1       2.008   4.747 -23.694  0.00  0.00    +0.210 C 
ATOM     15  O   UNL     1       2.556   3.820 -24.422  0.00  0.00    -0.369 OA
ATOM     16  C   UNL     1       1.866   2.775 -24.773  0.00  0.00    +0.210 C 
ATOM     17  C   UNL     1       0.628   2.657 -24.395  0.00  0.00    +0.160 C 
ENDBRANCH   5  11
BRANCH   6  18
ATOM     18  O   UNL     1      -1.274   2.263 -21.031  0.00  0.00    -0.383 OA
ATOM     19  H   UNL     1      -0.472   2.593 -20.597  0.00  0.00    +0.210 HD
ENDBRANCH   6  18
TORSDOF 2
ENDMDL
MODEL 3
REMARK VINA RESULT:    -8.451      1.808      2.196
REMARK INTER + INTRA:          -3.379
REMARK INTER:                  -8.698
REMARK INTRA:                   5.319
REMARK UNBOUND:                 5.319
REMARK  Name = CC1(C)[C@@H]2C[C@@H](N3CCOCC3)[C@](C)(O)C[C@H]21                     ZINC000106755958
REMARK  5 active torsions:
REMARK  status: ('A' for Active; 'I' for Inactive)
REMARK    1  A    between atoms: C_1  and  C_2
REMARK    2  A    between atoms: C_2  and  C_3
REMARK    3  A    between atoms: C_6  and  N_7
REMARK    4  A    between atoms: C_13  and  C_14
REMARK    5  A    between atoms: C_13  and  O_15
REMARK                            x       y       z     vdW  Elec       q    Type
REMARK                         _______ _______ _______ _____ _____    ______ ____
ROOT
ATOM      1  C   UNL     1      -3.369   2.194 -20.992  0.00  0.00    +0.011 C 
ATOM      2  C   UNL     1      -2.856   3.290 -21.464  0.00  0.00    -0.028 C 
ATOM      3  C   UNL     1      -1.713   2.841 -21.890  0.00  0.00    +0.004 C 
ATOM      4  C   UNL     1      -0.570   2.391 -22.315  0.00  0.00    +0.061 C 
ATOM      5  C   UNL     1       0.279   3.200 -22.878  0.00  0.00    +0.097 C 
ATOM      6  C   UNL     1      -0.016   4.458 -23.015  0.00  0.00    +0.106 C 
ATOM      7  C   UNL     1      -1.160   4.908 -22.590  0.00  0.00    +0.044 C 
ATOM      8  C   UNL     1       1.167   4.443 -23.553  0.00  0.00    +0.047 C 
ATOM      9  C   UNL     1      -3.821   4.122 -21.203  0.00  0.00    +0.011 C 
ATOM     10  C   UNL     1      -2.008   4.099 -22.027  0.00  0.00    +0.002 C 
ENDROOT
BRANCH   5  11
ATOM     11  N   UNL     1       1.421   2.750 -23.303  0.00  0.00    +0.243 N 
ATOM     12  H   UNL     1       0.846   3.138 -22.555  0.00  0.00    +0.204 HD
ATOM     13  C   UNL     1       2.442   2.705 -22.499  0.00  0.00    +0.160 C 
ATOM     14  C   UNL     1       3.585   2.255 -22.925  0.00  0.00    +0.210 C 
ATOM     15  O   UNL     1       3.708   1.850 -24.154  0.00  0.00    -0.369 OA
ATOM     16  C   UNL     1       2.686   1.894 -24.958  0.00  0.00    +0.210 C 
ATOM     17  C   UNL     1       1.544   2.344 -24.532  0.00  0.00    +0.160 C 
ENDBRANCH   5  11
BRANCH   6  18
ATOM     18  O   UNL     1       0.099   5.712 -23.339  0.00  0.00    -0.383 OA
ATOM     19  H   UNL     1      -0.500   5.912 -24.075  0.00  0.00    +0.210 HD
ENDBRANCH   6  18
TORSDOF 2
ENDMDL
