MODEL 1
REMARK VINA RESULT:    -8.787      0.000      0.000
REMARK INTER + INTRA:         -14.587
REMARK INTER:                 -12.925
REMARK INTRA:                  -1.662
REMARK UNBOUND:                -0.662
REMARK  Name = CCCCCCCCCCCC1=C(OC)C(=O)C=C(OC)C1=O                                  ZINC000100166747
REMARK  13 active torsions:
REMARK  status: ('A' for Active; 'I' for Inactive)
REMARK    1  A    between atoms: C_1  and  C_2
REMARK    2  A    between atoms: C_2  and  C_3
REMARK    3  A    between atoms: C_3  and  C_4
REMARK    4  A    between atoms: C_4  and  C_5
REMARK    5  A    between atoms: C_5  and  C_6
REMARK    6  A    between atoms: C_6  and  C_7
REMARK    7  A    between atoms: C_7  and  C_8
REMARK    8  A    between atoms: C_8  and  C_9
REMARK    9  A    between atoms: C_9  and  C_10
REMARK   10  A    between atoms: C_10  and  C_11
REMARK   11  A    between atoms: C_11  and  C_12
REMARK   12  A    between atoms: O_14  and  C_15
REMARK   13  A    between atoms: O_20  and  C_21
REMARK                            x       y       z     vdW  Elec       q    Type
REMARK                         _______ _______ _______ _____ _____    ______ ____
ROOT
ATOM      1  C   UNL     1       0.306   2.339 -22.624  0.00  0.00    -0.016 C 
ATOM      2  C   UNL     1       1.039   2.793 -23.597  0.00  0.00    +0.110 C 
ATOM      3  C   UNL     1       2.313   2.536 -23.627  0.00  0.00    -0.094 C 
ATOM      4  C   UNL     1       2.854   1.824 -22.684  0.00  0.00    +0.034 C 
ATOM      5  C   UNL     1       2.122   1.369 -21.710  0.00  0.00    +0.107 C 
ATOM      6  O   UNL     1       2.664   0.658 -20.767  0.00  0.00    -0.496 OA
ATOM      7  C   UNL     1       3.938   0.400 -20.797  0.00  0.00    +0.277 C 
ATOM      8  O   UNL     1       3.045   2.991 -24.600  0.00  0.00    -0.826 OA
ATOM      9  O   UNL     1       0.497   3.505 -24.540  0.00  0.00    -0.496 OA
ATOM     10  C   UNL     1       1.229   3.960 -25.513  0.00  0.00    +0.277 C 
ATOM     11  C   UNL     1       0.849   1.626 -21.680  0.00  0.00    -0.091 C 
ATOM     12  O   UNL     1       0.117   1.171 -20.707  0.00  0.00    -0.826 OA
ENDROOT
BRANCH   1  13
ATOM     13  C   UNL     1      -0.967   2.595 -22.594  0.00  0.00    +0.038 C 
BRANCH  13  14
ATOM     14  C   UNL     1      -1.388   3.746 -22.159  0.00  0.00    +0.005 C 
BRANCH  14  15
ATOM     15  C   UNL     1      -2.470   3.813 -21.443  0.00  0.00    +0.000 C 
BRANCH  15  16
ATOM     16  C   UNL     1      -3.072   2.723 -21.070  0.00  0.00    +0.000 C 
BRANCH  16  17
ATOM     17  C   UNL     1      -4.318   2.528 -21.385  0.00  0.00    +0.000 C 
BRANCH  17  18
ATOM     18  C   UNL     1      -5.046   3.524 -21.798  0.00  0.00    +0.000 C 
BRANCH  18  19
ATOM     19  C   UNL     1      -5.622   3.467 -22.963  0.00  0.00    -0.000 C 
BRANCH  19  20
ATOM     20  C   UNL     1      -5.181   4.201 -23.942  0.00  0.00    -0.000 C 
BRANCH  20  21
ATOM     21  C   UNL     1      -4.663   3.638 -24.992  0.00  0.00    -0.000 C 
BRANCH  21  23
ATOM     22  C   UNL     1      -2.629   3.337 -25.910  0.00  0.00    +0.004 C 
ATOM     23  C   UNL     1      -3.586   4.130 -25.528  0.00  0.00    -0.003 C 
ENDBRANCH  21  23
ENDBRANCH  20  21
ENDBRANCH  19  20
ENDBRANCH  18  19
ENDBRANCH  17  18
ENDBRANCH  16  17
ENDBRANCH  15  16
ENDBRANCH  14  15
ENDBRANCH  13  14
ENDBRANCH   1  13
TORSDOF 10
ENDMDL
MODEL 2
REMARK VINA RESULT:    -8.213      1.015      2.352
REMARK INTER + INTRA:         -13.677
REMARK INTER:                 -12.155
REMARK INTRA:                  -1.522
REMARK UNBOUND:                -0.662
REMARK  Name = CCCCCCCCCCCC1=C(OC)C(=O)C=C(OC)C1=O                                  ZINC000100166747
REMARK  13 active torsions:
REMARK  status: ('A' for Active; 'I' for Inactive)
REMARK    1  A    between atoms: C_1  and  C_2
REMARK    2  A    between atoms: C_2  and  C_3
REMARK    3  A    between atoms: C_3  and  C_4
REMARK    4  A    between atoms: C_4  and  C_5
REMARK    5  A    between atoms: C_5  and  C_6
REMARK    6  A    between atoms: C_6  and  C_7
REMARK    7  A    between atoms: C_7  and  C_8
REMARK    8  A    between atoms: C_8  and  C_9
REMARK    9  A    between atoms: C_9  and  C_10
REMARK   10  A    between atoms: C_10  and  C_11
REMARK   11  A    between atoms: C_11  and  C_12
REMARK   12  A    between atoms: O_14  and  C_15
REMARK   13  A    between atoms: O_20  and  C_21
REMARK                            x       y       z     vdW  Elec       q    Type
REMARK                         _______ _______ _______ _____ _____    ______ ____
ROOT
ATOM      1  C   UNL     1       0.895   2.000 -22.630  0.00  0.00    -0.016 C 
ATOM      2  C   UNL     1       1.601   2.029 -23.722  0.00  0.00    +0.110 C 
ATOM      3  C   UNL     1       2.818   1.570 -23.722  0.00  0.00    -0.094 C 
ATOM      4  C   UNL     1       3.328   1.082 -22.631  0.00  0.00    +0.034 C 
ATOM      5  C   UNL     1       2.622   1.052 -21.539  0.00  0.00    +0.107 C 
ATOM      6  O   UNL     1       3.132   0.563 -20.448  0.00  0.00    -0.496 OA
ATOM      7  C   UNL     1       4.349   0.104 -20.448  0.00  0.00    +0.277 C 
ATOM      8  O   UNL     1       3.523   1.600 -24.813  0.00  0.00    -0.826 OA
ATOM      9  O   UNL     1       1.091   2.518 -24.813  0.00  0.00    -0.496 OA
ATOM     10  C   UNL     1       1.796   2.548 -25.904  0.00  0.00    +0.277 C 
ATOM     11  C   UNL     1       1.406   1.511 -21.539  0.00  0.00    -0.091 C 
ATOM     12  O   UNL     1       0.700   1.481 -20.448  0.00  0.00    -0.826 OA
ENDROOT
BRANCH   1  13
ATOM     13  C   UNL     1      -0.321   2.458 -22.630  0.00  0.00    +0.038 C 
BRANCH  13  14
ATOM     14  C   UNL     1      -0.534   3.733 -22.490  0.00  0.00    +0.005 C 
BRANCH  14  15
ATOM     15  C   UNL     1      -1.150   4.395 -23.424  0.00  0.00    +0.000 C 
BRANCH  15  16
ATOM     16  C   UNL     1      -2.045   3.802 -24.159  0.00  0.00    +0.000 C 
BRANCH  16  17
ATOM     17  C   UNL     1      -3.179   4.390 -24.402  0.00  0.00    +0.000 C 
BRANCH  17  18
ATOM     18  C   UNL     1      -4.274   3.691 -24.448  0.00  0.00    +0.000 C 
BRANCH  18  19
ATOM     19  C   UNL     1      -5.204   3.881 -23.558  0.00  0.00    -0.000 C 
BRANCH  19  20
ATOM     20  C   UNL     1      -5.301   3.082 -22.538  0.00  0.00    -0.000 C 
BRANCH  20  21
ATOM     21  C   UNL     1      -4.912   3.477 -21.363  0.00  0.00    -0.000 C 
BRANCH  21  23
ATOM     22  C   UNL     1      -3.099   3.707 -20.047  0.00  0.00    +0.004 C 
ATOM     23  C   UNL     1      -3.835   2.978 -20.834  0.00  0.00    -0.003 C 
ENDBRANCH  21  23
ENDBRANCH  20  21
ENDBRANCH  19  20
ENDBRANCH  18  19
ENDBRANCH  17  18
ENDBRANCH  16  17
ENDBRANCH  15  16
ENDBRANCH  14  15
ENDBRANCH  13  14
ENDBRANCH   1  13
TORSDOF 10
ENDMDL
MODEL 3
REMARK VINA RESULT:    -7.885      1.895      2.938
REMARK INTER + INTRA:         -13.158
REMARK INTER:                 -11.900
REMARK INTRA:                  -1.258
REMARK UNBOUND:                -0.662
REMARK  Name = CCCCCCCCCCCC1=C(OC)C(=O)C=C(OC)C1=O                                  ZINC000100166747
REMARK  13 active torsions:
REMARK  status: ('A' for Active; 'I' for Inactive)
REMARK    1  A    between atoms: C_1  and  C_2
REMARK    2  A    between atoms: C_2  and  C_3
REMARK    3  A    between atoms: C_3  and  C_4
REMARK    4  A    between atoms: C_4  and  C_5
REMARK    5  A    between atoms: C_5  and  C_6
REMARK    6  A    between atoms: C_6  and  C_7
REMARK    7  A    between atoms: C_7  and  C_8
REMARK    8  A    between atoms: C_8  and  C_9
REMARK    9  A    between atoms: C_9  and  C_10
REMARK   10  A    between atoms: C_10  and  C_11
REMARK   11  A    between atoms: C_11  and  C_12
REMARK   12  A    between atoms: O_14  and  C_15
REMARK   13  A    between atoms: O_20  and  C_21
REMARK                            x       y       z     vdW  Elec       q    Type
REMARK                         _______ _______ _______ _____ _____    ______ ____
ROOT
ATOM      1  C   UNL     1       1.207   3.482 -23.737  0.00  0.00    -0.016 C 
ATOM      2  C   UNL     1       2.226   2.710 -23.973  0.00  0.00    +0.110 C 
ATOM      3  C   UNL     1       3.432   3.140 -23.746  0.00  0.00    -0.094 C 
ATOM      4  C   UNL     1       3.619   4.340 -23.283  0.00  0.00    +0.034 C 
ATOM      5  C   UNL     1       2.599   5.111 -23.046  0.00  0.00    +0.107 C 
ATOM      6  O   UNL     1       2.786   6.311 -22.583  0.00  0.00    -0.496 OA
ATOM      7  C   UNL     1       3.992   6.741 -22.356  0.00  0.00    +0.277 C 
ATOM      8  O   UNL     1       4.452   2.368 -23.982  0.00  0.00    -0.826 OA
ATOM      9  O   UNL     1       2.040   1.510 -24.436  0.00  0.00    -0.496 OA
ATOM     10  C   UNL     1       3.059   0.739 -24.672  0.00  0.00    +0.277 C 
ATOM     11  C   UNL     1       1.394   4.682 -23.273  0.00  0.00    -0.091 C 
ATOM     12  O   UNL     1       0.374   5.454 -23.037  0.00  0.00    -0.826 OA
ENDROOT
BRANCH   1  13
ATOM     13  C   UNL     1       0.001   3.053 -23.963  0.00  0.00    +0.038 C 
BRANCH  13  14
ATOM     14  C   UNL     1      -0.519   2.140 -23.197  0.00  0.00    +0.005 C 
BRANCH  14  15
ATOM     15  C   UNL     1      -0.835   2.426 -21.969  0.00  0.00    +0.000 C 
BRANCH  15  16
ATOM     16  C   UNL     1      -2.073   2.346 -21.581  0.00  0.00    +0.000 C 
BRANCH  16  17
ATOM     17  C   UNL     1      -2.599   3.308 -20.882  0.00  0.00    +0.000 C 
BRANCH  17  18
ATOM     18  C   UNL     1      -3.801   3.723 -21.151  0.00  0.00    +0.000 C 
BRANCH  18  19
ATOM     19  C   UNL     1      -4.657   2.917 -21.708  0.00  0.00    -0.000 C 
BRANCH  19  20
ATOM     20  C   UNL     1      -5.491   3.368 -22.597  0.00  0.00    -0.000 C 
BRANCH  20  21
ATOM     21  C   UNL     1      -5.067   4.144 -23.549  0.00  0.00    -0.000 C 
BRANCH  21  23
ATOM     22  C   UNL     1      -3.392   4.000 -25.048  0.00  0.00    +0.004 C 
ATOM     23  C   UNL     1      -4.568   3.630 -24.633  0.00  0.00    -0.003 C 
ENDBRANCH  21  23
ENDBRANCH  20  21
ENDBRANCH  19  20
ENDBRANCH  18  19
ENDBRANCH  17  18
ENDBRANCH  16  17
ENDBRANCH  15  16
ENDBRANCH  14  15
ENDBRANCH  13  14
ENDBRANCH   1  13
TORSDOF 10
ENDMDL
MODEL 4
REMARK VINA RESULT:    -7.778      1.505      3.608
REMARK INTER + INTRA:         -12.987
REMARK INTER:                 -12.336
REMARK INTRA:                  -0.651
REMARK UNBOUND:                -0.662
REMARK  Name = CCCCCCCCCCCC1=C(OC)C(=O)C=C(OC)C1=O                                  ZINC000100166747
REMARK  13 active torsions:
REMARK  status: ('A' for Active; 'I' for Inactive)
REMARK    1  A    between atoms: C_1  and  C_2
REMARK    2  A    between atoms: C_2  and  C_3
REMARK    3  A    between atoms: C_3  and  C_4
REMARK    4  A    between atoms: C_4  and  C_5
REMARK    5  A    between atoms: C_5  and  C_6
REMARK    6  A    between atoms: C_6  and  C_7
REMARK    7  A    between atoms: C_7  and  C_8
REMARK    8  A    between atoms: C_8  and  C_9
REMARK    9  A    between atoms: C_9  and  C_10
REMARK   10  A    between atoms: C_10  and  C_11
REMARK   11  A    between atoms: C_11  and  C_12
REMARK   12  A    between atoms: O_14  and  C_15
REMARK   13  A    between atoms: O_20  and  C_21
REMARK                            x       y       z     vdW  Elec       q    Type
REMARK                         _______ _______ _______ _____ _____    ______ ____
ROOT
ATOM      1  C   UNL     1       0.531   3.852 -23.166  0.00  0.00    -0.016 C 
ATOM      2  C   UNL     1       0.523   2.716 -22.534  0.00  0.00    +0.110 C 
ATOM      3  C   UNL     1       1.644   2.162 -22.177  0.00  0.00    -0.094 C 
ATOM      4  C   UNL     1       2.773   2.745 -22.453  0.00  0.00    +0.034 C 
ATOM      5  C   UNL     1       2.781   3.881 -23.085  0.00  0.00    +0.107 C 
ATOM      6  O   UNL     1       3.910   4.463 -23.360  0.00  0.00    -0.496 OA
ATOM      7  C   UNL     1       5.032   3.910 -23.004  0.00  0.00    +0.277 C 
ATOM      8  O   UNL     1       1.636   1.026 -21.545  0.00  0.00    -0.826 OA
ATOM      9  O   UNL     1      -0.606   2.133 -22.258  0.00  0.00    -0.496 OA
ATOM     10  C   UNL     1      -0.614   0.997 -21.626  0.00  0.00    +0.277 C 
ATOM     11  C   UNL     1       1.661   4.434 -23.441  0.00  0.00    -0.091 C 
ATOM     12  O   UNL     1       1.669   5.570 -24.073  0.00  0.00    -0.826 OA
ENDROOT
BRANCH   1  13
ATOM     13  C   UNL     1      -0.590   4.405 -23.522  0.00  0.00    +0.038 C 
BRANCH  13  14
ATOM     14  C   UNL     1      -0.883   4.525 -24.783  0.00  0.00    +0.005 C 
BRANCH  14  15
ATOM     15  C   UNL     1      -1.502   3.564 -25.400  0.00  0.00    +0.000 C 
BRANCH  15  16
ATOM     16  C   UNL     1      -2.736   3.285 -25.098  0.00  0.00    +0.000 C 
BRANCH  16  17
ATOM     17  C   UNL     1      -3.640   4.218 -25.137  0.00  0.00    +0.000 C 
BRANCH  17  18
ATOM     18  C   UNL     1      -4.880   3.930 -24.873  0.00  0.00    +0.000 C 
BRANCH  18  19
ATOM     19  C   UNL     1      -5.280   3.852 -23.638  0.00  0.00    -0.000 C 
BRANCH  19  20
ATOM     20  C   UNL     1      -4.550   3.235 -22.757  0.00  0.00    -0.000 C 
BRANCH  20  21
ATOM     21  C   UNL     1      -4.590   3.600 -21.510  0.00  0.00    -0.000 C 
BRANCH  21  23
ATOM     22  C   UNL     1      -2.817   3.771 -20.131  0.00  0.00    +0.004 C 
ATOM     23  C   UNL     1      -3.777   3.063 -20.649  0.00  0.00    -0.003 C 
ENDBRANCH  21  23
ENDBRANCH  20  21
ENDBRANCH  19  20
ENDBRANCH  18  19
ENDBRANCH  17  18
ENDBRANCH  16  17
ENDBRANCH  15  16
ENDBRANCH  14  15
ENDBRANCH  13  14
ENDBRANCH   1  13
TORSDOF 10
ENDMDL
MODEL 5
REMARK VINA RESULT:    -7.469      2.066      6.731
REMARK INTER + INTRA:         -12.498
REMARK INTER:                 -11.004
REMARK INTRA:                  -1.494
REMARK UNBOUND:                -0.662
REMARK  Name = CCCCCCCCCCCC1=C(OC)C(=O)C=C(OC)C1=O                                  ZINC000100166747
REMARK  13 active torsions:
REMARK  status: ('A' for Active; 'I' for Inactive)
REMARK    1  A    between atoms: C_1  and  C_2
REMARK    2  A    between atoms: C_2  and  C_3
REMARK    3  A    between atoms: C_3  and  C_4
REMARK    4  A    between atoms: C_4  and  C_5
REMARK    5  A    between atoms: C_5  and  C_6
REMARK    6  A    between atoms: C_6  and  C_7
REMARK    7  A    between atoms: C_7  and  C_8
REMARK    8  A    between atoms: C_8  and  C_9
REMARK    9  A    between atoms: C_9  and  C_10
REMARK   10  A    between atoms: C_10  and  C_11
REMARK   11  A    between atoms: C_11  and  C_12
REMARK   12  A    between atoms: O_14  and  C_15
REMARK   13  A    between atoms: O_20  and  C_21
REMARK                            x       y       z     vdW  Elec       q    Type
REMARK                         _______ _______ _______ _____ _____    ______ ____
ROOT
ATOM      1  C   UNL     1      -1.197   3.068 -23.049  0.00  0.00    -0.016 C 
ATOM      2  C   UNL     1      -2.332   3.156 -22.421  0.00  0.00    +0.110 C 
ATOM      3  C   UNL     1      -3.435   3.315 -23.092  0.00  0.00    -0.094 C 
ATOM      4  C   UNL     1      -3.403   3.387 -24.389  0.00  0.00    +0.034 C 
ATOM      5  C   UNL     1      -2.268   3.299 -25.017  0.00  0.00    +0.107 C 
ATOM      6  O   UNL     1      -2.236   3.371 -26.315  0.00  0.00    -0.496 OA
ATOM      7  C   UNL     1      -3.339   3.530 -26.985  0.00  0.00    +0.277 C 
ATOM      8  O   UNL     1      -4.570   3.403 -22.464  0.00  0.00    -0.826 OA
ATOM      9  O   UNL     1      -2.364   3.084 -21.124  0.00  0.00    -0.496 OA
ATOM     10  C   UNL     1      -3.499   3.172 -20.496  0.00  0.00    +0.277 C 
ATOM     11  C   UNL     1      -1.165   3.140 -24.348  0.00  0.00    -0.091 C 
ATOM     12  O   UNL     1      -0.030   3.053 -24.976  0.00  0.00    -0.826 OA
ENDROOT
BRANCH   1  13
ATOM     13  C   UNL     1      -0.095   2.909 -22.380  0.00  0.00    +0.038 C 
BRANCH  13  14
ATOM     14  C   UNL     1       0.377   1.715 -22.180  0.00  0.00    +0.005 C 
BRANCH  14  15
ATOM     15  C   UNL     1       1.327   1.528 -21.313  0.00  0.00    +0.000 C 
BRANCH  15  16
ATOM     16  C   UNL     1       2.421   0.920 -21.667  0.00  0.00    +0.000 C 
BRANCH  16  17
ATOM     17  C   UNL     1       3.530   1.156 -21.032  0.00  0.00    +0.000 C 
BRANCH  17  18
ATOM     18  C   UNL     1       4.339   2.080 -21.459  0.00  0.00    +0.000 C 
BRANCH  18  19
ATOM     19  C   UNL     1       4.845   1.996 -22.655  0.00  0.00    -0.000 C 
BRANCH  19  20
ATOM     20  C   UNL     1       4.531   2.879 -23.556  0.00  0.00    -0.000 C 
BRANCH  20  21
ATOM     21  C   UNL     1       4.035   4.025 -23.197  0.00  0.00    -0.000 C 
BRANCH  21  23
ATOM     22  C   UNL     1       2.317   5.481 -23.184  0.00  0.00    +0.004 C 
ATOM     23  C   UNL     1       2.871   4.396 -23.640  0.00  0.00    -0.003 C 
ENDBRANCH  21  23
ENDBRANCH  20  21
ENDBRANCH  19  20
ENDBRANCH  18  19
ENDBRANCH  17  18
ENDBRANCH  16  17
ENDBRANCH  15  16
ENDBRANCH  14  15
ENDBRANCH  13  14
ENDBRANCH   1  13
TORSDOF 10
ENDMDL
MODEL 6
REMARK VINA RESULT:    -7.332      2.369      6.490
REMARK INTER + INTRA:         -12.280
REMARK INTER:                 -10.583
REMARK INTRA:                  -1.697
REMARK UNBOUND:                -0.662
REMARK  Name = CCCCCCCCCCCC1=C(OC)C(=O)C=C(OC)C1=O                                  ZINC000100166747
REMARK  13 active torsions:
REMARK  status: ('A' for Active; 'I' for Inactive)
REMARK    1  A    between atoms: C_1  and  C_2
REMARK    2  A    between atoms: C_2  and  C_3
REMARK    3  A    between atoms: C_3  and  C_4
REMARK    4  A    between atoms: C_4  and  C_5
REMARK    5  A    between atoms: C_5  and  C_6
REMARK    6  A    between atoms: C_6  and  C_7
REMARK    7  A    between atoms: C_7  and  C_8
REMARK    8  A    between atoms: C_8  and  C_9
REMARK    9  A    between atoms: C_9  and  C_10
REMARK   10  A    between atoms: C_10  and  C_11
REMARK   11  A    between atoms: C_11  and  C_12
REMARK   12  A    between atoms: O_14  and  C_15
REMARK   13  A    between atoms: O_20  and  C_21
REMARK                            x       y       z     vdW  Elec       q    Type
REMARK                         _______ _______ _______ _____ _____    ______ ____
ROOT
ATOM      1  C   UNL     1      -2.426   3.608 -23.794  0.00  0.00    -0.016 C 
ATOM      2  C   UNL     1      -3.038   3.551 -24.940  0.00  0.00    +0.110 C 
ATOM      3  C   UNL     1      -4.325   3.369 -24.981  0.00  0.00    -0.094 C 
ATOM      4  C   UNL     1      -4.999   3.244 -23.877  0.00  0.00    +0.034 C 
ATOM      5  C   UNL     1      -4.387   3.300 -22.731  0.00  0.00    +0.107 C 
ATOM      6  O   UNL     1      -5.062   3.175 -21.627  0.00  0.00    -0.496 OA
ATOM      7  C   UNL     1      -6.349   2.993 -21.669  0.00  0.00    +0.277 C 
ATOM      8  O   UNL     1      -4.937   3.313 -26.127  0.00  0.00    -0.826 OA
ATOM      9  O   UNL     1      -2.363   3.677 -26.044  0.00  0.00    -0.496 OA
ATOM     10  C   UNL     1      -2.975   3.620 -27.190  0.00  0.00    +0.277 C 
ATOM     11  C   UNL     1      -3.101   3.482 -22.690  0.00  0.00    -0.091 C 
ATOM     12  O   UNL     1      -2.489   3.538 -21.544  0.00  0.00    -0.826 OA
ENDROOT
BRANCH   1  13
ATOM     13  C   UNL     1      -1.140   3.789 -23.753  0.00  0.00    +0.038 C 
BRANCH  13  14
ATOM     14  C   UNL     1      -0.658   4.980 -23.553  0.00  0.00    +0.005 C 
BRANCH  14  15
ATOM     15  C   UNL     1       0.535   5.123 -23.056  0.00  0.00    +0.000 C 
BRANCH  15  16
ATOM     16  C   UNL     1       1.579   4.911 -23.801  0.00  0.00    +0.000 C 
BRANCH  16  17
ATOM     17  C   UNL     1       2.731   4.668 -23.250  0.00  0.00    +0.000 C 
BRANCH  17  18
ATOM     18  C   UNL     1       3.335   3.540 -23.482  0.00  0.00    +0.000 C 
BRANCH  18  19
ATOM     19  C   UNL     1       3.622   2.742 -22.495  0.00  0.00    -0.000 C 
BRANCH  19  20
ATOM     20  C   UNL     1       2.671   2.109 -21.874  0.00  0.00    -0.000 C 
BRANCH  20  21
ATOM     21  C   UNL     1       1.844   1.363 -22.543  0.00  0.00    -0.000 C 
BRANCH  21  23
ATOM     22  C   UNL     1       0.302   1.614 -20.921  0.00  0.00    +0.004 C 
ATOM     23  C   UNL     1       0.644   1.155 -22.089  0.00  0.00    -0.003 C 
ENDBRANCH  21  23
ENDBRANCH  20  21
ENDBRANCH  19  20
ENDBRANCH  18  19
ENDBRANCH  17  18
ENDBRANCH  16  17
ENDBRANCH  15  16
ENDBRANCH  14  15
ENDBRANCH  13  14
ENDBRANCH   1  13
TORSDOF 10
ENDMDL
MODEL 7
REMARK VINA RESULT:    -7.152      2.036      6.380
REMARK INTER + INTRA:         -11.995
REMARK INTER:                 -10.673
REMARK INTRA:                  -1.322
REMARK UNBOUND:                -0.662
REMARK  Name = CCCCCCCCCCCC1=C(OC)C(=O)C=C(OC)C1=O                                  ZINC000100166747
REMARK  13 active torsions:
REMARK  status: ('A' for Active; 'I' for Inactive)
REMARK    1  A    between atoms: C_1  and  C_2
REMARK    2  A    between atoms: C_2  and  C_3
REMARK    3  A    between atoms: C_3  and  C_4
REMARK    4  A    between atoms: C_4  and  C_5
REMARK    5  A    between atoms: C_5  and  C_6
REMARK    6  A    between atoms: C_6  and  C_7
REMARK    7  A    between atoms: C_7  and  C_8
REMARK    8  A    between atoms: C_8  and  C_9
REMARK    9  A    between atoms: C_9  and  C_10
REMARK   10  A    between atoms: C_10  and  C_11
REMARK   11  A    between atoms: C_11  and  C_12
REMARK   12  A    between atoms: O_14  and  C_15
REMARK   13  A    between atoms: O_20  and  C_21
REMARK                            x       y       z     vdW  Elec       q    Type
REMARK                         _______ _______ _______ _____ _____    ______ ____
ROOT
ATOM      1  C   UNL     1      -1.205   2.849 -22.626  0.00  0.00    -0.016 C 
ATOM      2  C   UNL     1      -0.954   3.058 -23.884  0.00  0.00    +0.110 C 
ATOM      3  C   UNL     1      -1.920   3.370 -24.697  0.00  0.00    -0.094 C 
ATOM      4  C   UNL     1      -3.137   3.472 -24.251  0.00  0.00    +0.034 C 
ATOM      5  C   UNL     1      -3.388   3.263 -22.993  0.00  0.00    +0.107 C 
ATOM      6  O   UNL     1      -4.605   3.365 -22.548  0.00  0.00    -0.496 OA
ATOM      7  C   UNL     1      -5.571   3.676 -23.361  0.00  0.00    +0.277 C 
ATOM      8  O   UNL     1      -1.668   3.579 -25.955  0.00  0.00    -0.826 OA
ATOM      9  O   UNL     1       0.263   2.956 -24.329  0.00  0.00    -0.496 OA
ATOM     10  C   UNL     1       0.515   3.165 -25.587  0.00  0.00    +0.277 C 
ATOM     11  C   UNL     1      -2.423   2.952 -22.180  0.00  0.00    -0.091 C 
ATOM     12  O   UNL     1      -2.675   2.743 -20.922  0.00  0.00    -0.826 OA
ENDROOT
BRANCH   1  13
ATOM     13  C   UNL     1      -0.240   2.538 -21.813  0.00  0.00    +0.038 C 
BRANCH  13  14
ATOM     14  C   UNL     1       0.391   1.411 -21.955  0.00  0.00    +0.005 C 
BRANCH  14  15
ATOM     15  C   UNL     1       1.614   1.294 -21.533  0.00  0.00    +0.000 C 
BRANCH  15  16
ATOM     16  C   UNL     1       2.440   0.498 -22.146  0.00  0.00    +0.000 C 
BRANCH  16  17
ATOM     17  C   UNL     1       3.722   0.630 -21.969  0.00  0.00    +0.000 C 
BRANCH  17  18
ATOM     18  C   UNL     1       4.453   1.167 -22.901  0.00  0.00    +0.000 C 
BRANCH  18  19
ATOM     19  C   UNL     1       5.137   2.244 -22.649  0.00  0.00    -0.000 C 
BRANCH  19  20
ATOM     20  C   UNL     1       4.886   3.340 -23.302  0.00  0.00    -0.000 C 
BRANCH  20  21
ATOM     21  C   UNL     1       3.665   3.628 -23.643  0.00  0.00    -0.000 C 
BRANCH  21  23
ATOM     22  C   UNL     1       2.454   5.490 -23.275  0.00  0.00    +0.004 C 
ATOM     23  C   UNL     1       2.925   4.352 -22.857  0.00  0.00    -0.003 C 
ENDBRANCH  21  23
ENDBRANCH  20  21
ENDBRANCH  19  20
ENDBRANCH  18  19
ENDBRANCH  17  18
ENDBRANCH  16  17
ENDBRANCH  15  16
ENDBRANCH  14  15
ENDBRANCH  13  14
ENDBRANCH   1  13
TORSDOF 10
ENDMDL
MODEL 8
REMARK VINA RESULT:    -6.981      1.181      3.053
REMARK INTER + INTRA:         -11.725
REMARK INTER:                 -10.863
REMARK INTRA:                  -0.862
REMARK UNBOUND:                -0.662
REMARK  Name = CCCCCCCCCCCC1=C(OC)C(=O)C=C(OC)C1=O                                  ZINC000100166747
REMARK  13 active torsions:
REMARK  status: ('A' for Active; 'I' for Inactive)
REMARK    1  A    between atoms: C_1  and  C_2
REMARK    2  A    between atoms: C_2  and  C_3
REMARK    3  A    between atoms: C_3  and  C_4
REMARK    4  A    between atoms: C_4  and  C_5
REMARK    5  A    between atoms: C_5  and  C_6
REMARK    6  A    between atoms: C_6  and  C_7
REMARK    7  A    between atoms: C_7  and  C_8
REMARK    8  A    between atoms: C_8  and  C_9
REMARK    9  A    between atoms: C_9  and  C_10
REMARK   10  A    between atoms: C_10  and  C_11
REMARK   11  A    between atoms: C_11  and  C_12
REMARK   12  A    between atoms: O_14  and  C_15
REMARK   13  A    between atoms: O_20  and  C_21
REMARK                            x       y       z     vdW  Elec       q    Type
REMARK                         _______ _______ _______ _____ _____    ______ ____
ROOT
ATOM      1  C   UNL     1      -0.375   2.036 -22.207  0.00  0.00    -0.016 C 
ATOM      2  C   UNL     1       0.837   1.915 -21.753  0.00  0.00    +0.110 C 
ATOM      3  C   UNL     1       1.840   2.354 -22.455  0.00  0.00    -0.094 C 
ATOM      4  C   UNL     1       1.631   2.913 -23.610  0.00  0.00    +0.034 C 
ATOM      5  C   UNL     1       0.418   3.034 -24.064  0.00  0.00    +0.107 C 
ATOM      6  O   UNL     1       0.209   3.593 -25.218  0.00  0.00    -0.496 OA
ATOM      7  C   UNL     1       1.212   4.031 -25.920  0.00  0.00    +0.277 C 
ATOM      8  O   UNL     1       3.053   2.234 -22.002  0.00  0.00    -0.826 OA
ATOM      9  O   UNL     1       1.047   1.357 -20.599  0.00  0.00    -0.496 OA
ATOM     10  C   UNL     1       2.259   1.236 -20.145  0.00  0.00    +0.277 C 
ATOM     11  C   UNL     1      -0.584   2.595 -23.363  0.00  0.00    -0.091 C 
ATOM     12  O   UNL     1      -1.797   2.716 -23.816  0.00  0.00    -0.826 OA
ENDROOT
BRANCH   1  13
ATOM     13  C   UNL     1      -1.378   1.598 -21.506  0.00  0.00    +0.038 C 
BRANCH  13  14
ATOM     14  C   UNL     1      -2.303   2.421 -21.111  0.00  0.00    +0.005 C 
BRANCH  14  15
ATOM     15  C   UNL     1      -3.451   1.963 -20.709  0.00  0.00    +0.000 C 
BRANCH  15  16
ATOM     16  C   UNL     1      -4.553   2.525 -21.112  0.00  0.00    +0.000 C 
BRANCH  16  17
ATOM     17  C   UNL     1      -4.504   3.560 -21.897  0.00  0.00    +0.000 C 
BRANCH  17  18
ATOM     18  C   UNL     1      -4.990   3.485 -23.100  0.00  0.00    +0.000 C 
BRANCH  18  19
ATOM     19  C   UNL     1      -4.955   4.525 -23.881  0.00  0.00    -0.000 C 
BRANCH  19  20
ATOM     20  C   UNL     1      -4.784   4.371 -25.160  0.00  0.00    -0.000 C 
BRANCH  20  21
ATOM     21  C   UNL     1      -4.810   3.180 -25.681  0.00  0.00    -0.000 C 
BRANCH  21  23
ATOM     22  C   UNL     1      -2.956   3.628 -26.878  0.00  0.00    +0.004 C 
ATOM     23  C   UNL     1      -3.985   2.871 -26.637  0.00  0.00    -0.003 C 
ENDBRANCH  21  23
ENDBRANCH  20  21
ENDBRANCH  19  20
ENDBRANCH  18  19
ENDBRANCH  17  18
ENDBRANCH  16  17
ENDBRANCH  15  16
ENDBRANCH  14  15
ENDBRANCH  13  14
ENDBRANCH   1  13
TORSDOF 10
ENDMDL
MODEL 9
REMARK VINA RESULT:    -6.760      2.439      4.096
REMARK INTER + INTRA:         -11.374
REMARK INTER:                 -10.712
REMARK INTRA:                  -0.662
REMARK UNBOUND:                -0.662
REMARK  Name = CCCCCCCCCCCC1=C(OC)C(=O)C=C(OC)C1=O                                  ZINC000100166747
REMARK  13 active torsions:
REMARK  status: ('A' for Active; 'I' for Inactive)
REMARK    1  A    between atoms: C_1  and  C_2
REMARK    2  A    between atoms: C_2  and  C_3
REMARK    3  A    between atoms: C_3  and  C_4
REMARK    4  A    between atoms: C_4  and  C_5
REMARK    5  A    between atoms: C_5  and  C_6
REMARK    6  A    between atoms: C_6  and  C_7
REMARK    7  A    between atoms: C_7  and  C_8
REMARK    8  A    between atoms: C_8  and  C_9
REMARK    9  A    between atoms: C_9  and  C_10
REMARK   10  A    between atoms: C_10  and  C_11
REMARK   11  A    between atoms: C_11  and  C_12
REMARK   12  A    between atoms: O_14  and  C_15
REMARK   13  A    between atoms: O_20  and  C_21
REMARK                            x       y       z     vdW  Elec       q    Type
REMARK                         _______ _______ _______ _____ _____    ______ ____
ROOT
ATOM      1  C   UNL     1       3.869   3.439 -22.890  0.00  0.00    -0.016 C 
ATOM      2  C   UNL     1       4.969   4.039 -22.543  0.00  0.00    +0.110 C 
ATOM      3  C   UNL     1       5.830   3.429 -21.782  0.00  0.00    -0.094 C 
ATOM      4  C   UNL     1       5.590   2.220 -21.369  0.00  0.00    +0.034 C 
ATOM      5  C   UNL     1       4.489   1.621 -21.716  0.00  0.00    +0.107 C 
ATOM      6  O   UNL     1       4.249   0.412 -21.302  0.00  0.00    -0.496 OA
ATOM      7  C   UNL     1       5.110  -0.198 -20.541  0.00  0.00    +0.277 C 
ATOM      8  O   UNL     1       6.930   4.028 -21.435  0.00  0.00    -0.826 OA
ATOM      9  O   UNL     1       5.209   5.248 -22.956  0.00  0.00    -0.496 OA
ATOM     10  C   UNL     1       6.309   5.847 -22.610  0.00  0.00    +0.277 C 
ATOM     11  C   UNL     1       3.629   2.230 -22.476  0.00  0.00    -0.091 C 
ATOM     12  O   UNL     1       2.529   1.631 -22.823  0.00  0.00    -0.826 OA
ENDROOT
BRANCH   1  13
ATOM     13  C   UNL     1       3.009   4.049 -23.650  0.00  0.00    +0.038 C 
BRANCH  13  14
ATOM     14  C   UNL     1       2.409   5.120 -23.224  0.00  0.00    +0.005 C 
BRANCH  14  15
ATOM     15  C   UNL     1       1.125   5.249 -23.375  0.00  0.00    +0.000 C 
BRANCH  15  16
ATOM     16  C   UNL     1       0.397   4.212 -23.666  0.00  0.00    +0.000 C 
BRANCH  16  17
ATOM     17  C   UNL     1      -0.867   4.360 -23.932  0.00  0.00    +0.000 C 
BRANCH  17  18
ATOM     18  C   UNL     1      -1.760   4.001 -23.058  0.00  0.00    +0.000 C 
BRANCH  18  19
ATOM     19  C   UNL     1      -1.471   3.097 -22.167  0.00  0.00    -0.000 C 
BRANCH  19  20
ATOM     20  C   UNL     1      -2.267   2.902 -21.158  0.00  0.00    -0.000 C 
BRANCH  20  21
ATOM     21  C   UNL     1      -3.428   3.485 -21.124  0.00  0.00    -0.000 C 
BRANCH  21  23
ATOM     22  C   UNL     1      -5.458   3.215 -22.059  0.00  0.00    +0.004 C 
ATOM     23  C   UNL     1      -4.511   2.784 -21.279  0.00  0.00    -0.003 C 
ENDBRANCH  21  23
ENDBRANCH  20  21
ENDBRANCH  19  20
ENDBRANCH  18  19
ENDBRANCH  17  18
ENDBRANCH  16  17
ENDBRANCH  15  16
ENDBRANCH  14  15
ENDBRANCH  13  14
ENDBRANCH   1  13
TORSDOF 10
ENDMDL
