MODEL 1
REMARK VINA RESULT:    -8.920      0.000      0.000
REMARK INTER + INTRA:         -16.552
REMARK INTER:                 -14.831
REMARK INTRA:                  -1.722
REMARK UNBOUND:                 0.189
REMARK  Name = ZINC000085340961
REMARK  19 active torsions:
REMARK  status: ('A' for Active; 'I' for Inactive)
REMARK    1  A    between atoms: C_1  and  C_2
REMARK    2  A    between atoms: C_2  and  C_3
REMARK    3  A    between atoms: C_3  and  C_4
REMARK    4  A    between atoms: C_4  and  C_5
REMARK    5  A    between atoms: C_5  and  C_6
REMARK    6  A    between atoms: C_6  and  C_7
REMARK    7  A    between atoms: C_7  and  C_8
REMARK    8  A    between atoms: C_8  and  C_9
REMARK    9  A    between atoms: C_9  and  C_10
REMARK   10  A    between atoms: C_10  and  C_11
REMARK   11  A    between atoms: C_11  and  C_12
REMARK   12  A    between atoms: C_13  and  O_14
REMARK   13  A    between atoms: C_15  and  O_16
REMARK   14  A    between atoms: C_22  and  C_23
REMARK   15  A    between atoms: N_25  and  CA_26
REMARK   16  A    between atoms: CA_26  and  C_27
REMARK   17  A    between atoms: CA_26  and  CB_30
REMARK   18  A    between atoms: CB_30  and  CG1_31
REMARK   19  A    between atoms: CB_30  and  CG2_32
REMARK                            x       y       z     vdW  Elec       q    Type
REMARK                         _______ _______ _______ _____ _____    ______ ____
ROOT
ATOM      1  C   UNK A   0       5.800   4.731 -23.070  0.00  0.00    +0.025 A 
ATOM      2  C   UNK A   0       6.493   5.648 -22.465  0.00  0.00    +0.164 A 
ATOM      3  C   UNK A   0       5.897   6.678 -21.938  0.00  0.00    +0.161 A 
ATOM      4  C   UNK A   0       4.605   6.789 -22.019  0.00  0.00    +0.079 A 
ATOM      5  C   UNK A   0       3.909   5.873 -22.624  0.00  0.00    +0.094 A 
ATOM      6  N   UNK A   0       2.617   5.986 -22.703  0.00  0.00    -0.243 NA
ATOM      7  C   UNK A   0       1.920   5.071 -23.308  0.00  0.00    +0.091 A 
ATOM      8  C   UNK A   0       0.628   5.183 -23.387  0.00  0.00    +0.043 A 
ATOM      9  C   UNK A   0      -0.070   4.269 -23.992  0.00  0.00    +0.039 A 
ATOM     10  C   UNK A   0       0.526   3.241 -24.518  0.00  0.00    +0.015 A 
ATOM     11  C   UNK A   0       1.819   3.126 -24.440  0.00  0.00    +0.030 A 
ATOM     12  C   UNK A   0       2.516   4.043 -23.833  0.00  0.00    +0.090 A 
ATOM     13  N   UNK A   0       3.809   3.928 -23.755  0.00  0.00    -0.243 NA
ATOM     14  C   UNK A   0       4.505   4.845 -23.149  0.00  0.00    +0.097 A 
ENDROOT
BRANCH   9  15
ATOM     15  C   UNK A   0      -1.362   4.382 -24.071  0.00  0.00    +0.245 C 
ATOM     16  N   VAL A   1      -2.102   3.320 -24.189  0.00  0.00    -0.303 N 
ATOM     17  H   VAL A   1      -1.683   2.429 -24.218  0.00  0.00    +0.150 HD
ATOM     18  O   UNK A   0      -1.915   5.558 -24.032  0.00  0.00    -0.270 OA
BRANCH  16  19
ATOM     19  CA  VAL A   1      -3.394   3.433 -24.268  0.00  0.00    +0.121 C 
BRANCH  19  20
ATOM     20  C   VAL A   1      -3.959   3.646 -25.419  0.00  0.00    +0.062 C 
ATOM     21  OXT VAL A   1      -4.100   2.671 -26.266  0.00  0.00    -0.548 OA
ATOM     22  O   VAL A   1      -4.384   4.837 -25.723  0.00  0.00    -0.548 OA
ENDBRANCH  19  20
BRANCH  19  23
ATOM     23  CB  VAL A   1      -4.123   3.332 -23.196  0.00  0.00    +0.009 C 
ATOM     24  CG2 VAL A   1      -5.370   3.698 -23.222  0.00  0.00    +0.009 C 
ATOM     25  CG1 VAL A   1      -3.605   2.865 -22.099  0.00  0.00    +0.009 C 
ENDBRANCH  19  23
ENDBRANCH  16  19
ENDBRANCH   9  15
BRANCH   2  26
ATOM     26  O   UNK A   0       7.787   5.537 -22.384  0.00  0.00    -0.503 OA
ATOM     27  H   UNK A   0       8.337   6.212 -22.730  0.00  0.00    +0.292 HD
ENDBRANCH   2  26
BRANCH   3  28
ATOM     28  O   UNK A   0       6.592   7.593 -21.333  0.00  0.00    -0.503 OA
ATOM     29  H   UNK A   0       6.351   7.870 -20.472  0.00  0.00    +0.292 HD
ENDBRANCH   3  28
BRANCH   1  30
ATOM     30  C   UNK A   0       6.394   3.704 -23.596  0.00  0.00    +0.041 C 
BRANCH  30  31
ATOM     31  C   UNK A   0       6.821   2.739 -22.836  0.00  0.00    +0.005 C 
BRANCH  31  32
ATOM     32  C   UNK A   0       6.061   2.269 -21.892  0.00  0.00    +0.000 C 
BRANCH  32  33
ATOM     33  C   UNK A   0       5.585   1.062 -21.979  0.00  0.00    +0.000 C 
BRANCH  33  34
ATOM     34  C   UNK A   0       4.985   0.524 -20.958  0.00  0.00    +0.000 C 
BRANCH  34  35
ATOM     35  C   UNK A   0       3.694   0.375 -20.967  0.00  0.00    +0.000 C 
BRANCH  35  36
ATOM     36  C   UNK A   0       3.043   0.428 -22.092  0.00  0.00    -0.000 C 
BRANCH  36  37
ATOM     37  C   UNK A   0       1.799   0.805 -22.104  0.00  0.00    -0.000 C 
BRANCH  37  38
ATOM     38  C   UNK A   0       1.341   1.569 -21.156  0.00  0.00    -0.000 C 
BRANCH  38  40
ATOM     39  C   UNK A   0      -0.782   1.082 -21.726  0.00  0.00    +0.004 C 
ATOM     40  C   UNK A   0       0.069   1.830 -21.089  0.00  0.00    -0.003 C 
ENDBRANCH  38  40
ENDBRANCH  37  38
ENDBRANCH  36  37
ENDBRANCH  35  36
ENDBRANCH  34  35
ENDBRANCH  33  34
ENDBRANCH  32  33
ENDBRANCH  31  32
ENDBRANCH  30  31
ENDBRANCH   1  30
TORSDOF 16
ENDMDL
MODEL 2
REMARK VINA RESULT:    -8.917      1.657      8.304
REMARK INTER + INTRA:         -16.547
REMARK INTER:                 -13.964
REMARK INTRA:                  -2.583
REMARK UNBOUND:                 0.189
REMARK  Name = ZINC000085340961
REMARK  19 active torsions:
REMARK  status: ('A' for Active; 'I' for Inactive)
REMARK    1  A    between atoms: C_1  and  C_2
REMARK    2  A    between atoms: C_2  and  C_3
REMARK    3  A    between atoms: C_3  and  C_4
REMARK    4  A    between atoms: C_4  and  C_5
REMARK    5  A    between atoms: C_5  and  C_6
REMARK    6  A    between atoms: C_6  and  C_7
REMARK    7  A    between atoms: C_7  and  C_8
REMARK    8  A    between atoms: C_8  and  C_9
REMARK    9  A    between atoms: C_9  and  C_10
REMARK   10  A    between atoms: C_10  and  C_11
REMARK   11  A    between atoms: C_11  and  C_12
REMARK   12  A    between atoms: C_13  and  O_14
REMARK   13  A    between atoms: C_15  and  O_16
REMARK   14  A    between atoms: C_22  and  C_23
REMARK   15  A    between atoms: N_25  and  CA_26
REMARK   16  A    between atoms: CA_26  and  C_27
REMARK   17  A    between atoms: CA_26  and  CB_30
REMARK   18  A    between atoms: CB_30  and  CG1_31
REMARK   19  A    between atoms: CB_30  and  CG2_32
REMARK                            x       y       z     vdW  Elec       q    Type
REMARK                         _______ _______ _______ _____ _____    ______ ____
ROOT
ATOM      1  C   UNK A   0      -3.334   4.283 -24.825  0.00  0.00    +0.025 A 
ATOM      2  C   UNK A   0      -3.971   3.912 -25.895  0.00  0.00    +0.164 A 
ATOM      3  C   UNK A   0      -3.318   3.412 -26.904  0.00  0.00    +0.161 A 
ATOM      4  C   UNK A   0      -2.026   3.284 -26.840  0.00  0.00    +0.079 A 
ATOM      5  C   UNK A   0      -1.388   3.654 -25.771  0.00  0.00    +0.094 A 
ATOM      6  N   UNK A   0      -0.096   3.525 -25.709  0.00  0.00    -0.243 NA
ATOM      7  C   UNK A   0       0.544   3.895 -24.640  0.00  0.00    +0.091 A 
ATOM      8  C   UNK A   0       1.836   3.766 -24.577  0.00  0.00    +0.043 A 
ATOM      9  C   UNK A   0       2.477   4.136 -23.508  0.00  0.00    +0.039 A 
ATOM     10  C   UNK A   0       1.824   4.635 -22.502  0.00  0.00    +0.015 A 
ATOM     11  C   UNK A   0       0.532   4.765 -22.562  0.00  0.00    +0.030 A 
ATOM     12  C   UNK A   0      -0.109   4.394 -23.633  0.00  0.00    +0.090 A 
ATOM     13  N   UNK A   0      -1.401   4.524 -23.693  0.00  0.00    -0.243 NA
ATOM     14  C   UNK A   0      -2.040   4.153 -24.763  0.00  0.00    +0.097 A 
ENDROOT
BRANCH   9  15
ATOM     15  C   UNK A   0       3.767   4.007 -23.447  0.00  0.00    +0.245 C 
ATOM     16  N   VAL A   1       4.429   4.545 -22.465  0.00  0.00    -0.303 N 
ATOM     17  H   VAL A   1       3.950   5.051 -21.769  0.00  0.00    +0.150 HD
ATOM     18  O   UNK A   0       4.399   3.340 -24.367  0.00  0.00    -0.270 OA
BRANCH  16  19
ATOM     19  CA  VAL A   1       5.721   4.416 -22.404  0.00  0.00    +0.121 C 
BRANCH  19  20
ATOM     20  C   VAL A   1       6.243   3.369 -21.836  0.00  0.00    +0.062 C 
ATOM     21  OXT VAL A   1       6.441   3.355 -20.552  0.00  0.00    -0.548 OA
ATOM     22  O   VAL A   1       6.568   2.336 -22.555  0.00  0.00    -0.548 OA
ENDBRANCH  19  20
BRANCH  19  23
ATOM     23  CB  VAL A   1       6.491   5.334 -22.909  0.00  0.00    +0.009 C 
ATOM     24  CG2 VAL A   1       6.482   6.535 -22.411  0.00  0.00    +0.009 C 
ATOM     25  CG1 VAL A   1       7.270   5.050 -23.910  0.00  0.00    +0.009 C 
ENDBRANCH  19  23
ENDBRANCH  16  19
ENDBRANCH   9  15
BRANCH   2  26
ATOM     26  O   UNK A   0      -5.264   4.040 -25.960  0.00  0.00    -0.503 OA
ATOM     27  H   UNK A   0      -5.818   3.365 -25.620  0.00  0.00    +0.292 HD
ENDBRANCH   2  26
BRANCH   3  28
ATOM     28  O   UNK A   0      -3.956   3.042 -27.973  0.00  0.00    -0.503 OA
ATOM     29  H   UNK A   0      -4.002   2.134 -28.199  0.00  0.00    +0.292 HD
ENDBRANCH   3  28
BRANCH   1  30
ATOM     30  C   UNK A   0      -3.985   4.782 -23.819  0.00  0.00    +0.041 C 
BRANCH  30  31
ATOM     31  C   UNK A   0      -4.859   4.057 -23.185  0.00  0.00    +0.005 C 
BRANCH  31  32
ATOM     32  C   UNK A   0      -4.471   3.225 -22.265  0.00  0.00    +0.000 C 
BRANCH  32  33
ATOM     33  C   UNK A   0      -3.916   3.671 -21.176  0.00  0.00    +0.000 C 
BRANCH  33  34
ATOM     34  C   UNK A   0      -2.802   3.150 -20.754  0.00  0.00    +0.000 C 
BRANCH  34  35
ATOM     35  C   UNK A   0      -2.179   2.273 -21.483  0.00  0.00    +0.000 C 
BRANCH  35  36
ATOM     36  C   UNK A   0      -0.965   1.919 -21.178  0.00  0.00    -0.000 C 
BRANCH  36  37
ATOM     37  C   UNK A   0      -0.298   1.136 -21.973  0.00  0.00    -0.000 C 
BRANCH  37  38
ATOM     38  C   UNK A   0       1.003   1.153 -21.961  0.00  0.00    -0.000 C 
BRANCH  38  40
ATOM     39  C   UNK A   0       2.939   1.491 -20.863  0.00  0.00    +0.004 C 
ATOM     40  C   UNK A   0       1.639   1.468 -20.872  0.00  0.00    -0.003 C 
ENDBRANCH  38  40
ENDBRANCH  37  38
ENDBRANCH  36  37
ENDBRANCH  35  36
ENDBRANCH  34  35
ENDBRANCH  33  34
ENDBRANCH  32  33
ENDBRANCH  31  32
ENDBRANCH  30  31
ENDBRANCH   1  30
TORSDOF 16
ENDMDL
MODEL 3
REMARK VINA RESULT:    -8.014      3.206      8.089
REMARK INTER + INTRA:         -14.853
REMARK INTER:                 -12.957
REMARK INTRA:                  -1.896
REMARK UNBOUND:                 0.189
REMARK  Name = ZINC000085340961
REMARK  19 active torsions:
REMARK  status: ('A' for Active; 'I' for Inactive)
REMARK    1  A    between atoms: C_1  and  C_2
REMARK    2  A    between atoms: C_2  and  C_3
REMARK    3  A    between atoms: C_3  and  C_4
REMARK    4  A    between atoms: C_4  and  C_5
REMARK    5  A    between atoms: C_5  and  C_6
REMARK    6  A    between atoms: C_6  and  C_7
REMARK    7  A    between atoms: C_7  and  C_8
REMARK    8  A    between atoms: C_8  and  C_9
REMARK    9  A    between atoms: C_9  and  C_10
REMARK   10  A    between atoms: C_10  and  C_11
REMARK   11  A    between atoms: C_11  and  C_12
REMARK   12  A    between atoms: C_13  and  O_14
REMARK   13  A    between atoms: C_15  and  O_16
REMARK   14  A    between atoms: C_22  and  C_23
REMARK   15  A    between atoms: N_25  and  CA_26
REMARK   16  A    between atoms: CA_26  and  C_27
REMARK   17  A    between atoms: CA_26  and  CB_30
REMARK   18  A    between atoms: CB_30  and  CG1_31
REMARK   19  A    between atoms: CB_30  and  CG2_32
REMARK                            x       y       z     vdW  Elec       q    Type
REMARK                         _______ _______ _______ _____ _____    ______ ____
ROOT
ATOM      1  C   UNK A   0       3.778   2.612 -22.885  0.00  0.00    +0.025 A 
ATOM      2  C   UNK A   0       4.460   1.507 -22.848  0.00  0.00    +0.164 A 
ATOM      3  C   UNK A   0       5.726   1.530 -22.547  0.00  0.00    +0.161 A 
ATOM      4  C   UNK A   0       6.308   2.662 -22.283  0.00  0.00    +0.079 A 
ATOM      5  C   UNK A   0       5.627   3.768 -22.319  0.00  0.00    +0.094 A 
ATOM      6  N   UNK A   0       6.211   4.899 -22.054  0.00  0.00    -0.243 NA
ATOM      7  C   UNK A   0       5.532   6.006 -22.090  0.00  0.00    +0.091 A 
ATOM      8  C   UNK A   0       6.115   7.136 -21.826  0.00  0.00    +0.043 A 
ATOM      9  C   UNK A   0       5.436   8.244 -21.861  0.00  0.00    +0.039 A 
ATOM     10  C   UNK A   0       4.172   8.220 -22.162  0.00  0.00    +0.015 A 
ATOM     11  C   UNK A   0       3.586   7.090 -22.427  0.00  0.00    +0.030 A 
ATOM     12  C   UNK A   0       4.267   5.982 -22.391  0.00  0.00    +0.090 A 
ATOM     13  N   UNK A   0       3.682   4.851 -22.656  0.00  0.00    -0.243 NA
ATOM     14  C   UNK A   0       4.363   3.745 -22.620  0.00  0.00    +0.097 A 
ENDROOT
BRANCH   9  15
ATOM     15  C   UNK A   0       6.020   9.374 -21.596  0.00  0.00    +0.245 C 
ATOM     16  N   VAL A   1       5.871  10.386 -22.398  0.00  0.00    -0.303 N 
ATOM     17  H   VAL A   1       5.315  10.297 -23.206  0.00  0.00    +0.150 HD
ATOM     18  O   UNK A   0       6.754   9.492 -20.530  0.00  0.00    -0.270 OA
BRANCH  16  19
ATOM     19  CA  VAL A   1       6.455  11.517 -22.133  0.00  0.00    +0.121 C 
BRANCH  19  20
ATOM     20  C   VAL A   1       7.743  11.632 -22.273  0.00  0.00    +0.062 C 
ATOM     21  OXT VAL A   1       8.319  11.220 -23.362  0.00  0.00    -0.548 OA
ATOM     22  O   VAL A   1       8.455  12.159 -21.321  0.00  0.00    -0.548 OA
ENDBRANCH  19  20
BRANCH  19  23
ATOM     23  CB  VAL A   1       5.753  12.534 -21.729  0.00  0.00    +0.009 C 
ATOM     24  CG2 VAL A   1       5.459  13.491 -22.559  0.00  0.00    +0.009 C 
ATOM     25  CG1 VAL A   1       5.344  12.593 -20.496  0.00  0.00    +0.009 C 
ENDBRANCH  19  23
ENDBRANCH  16  19
ENDBRANCH   9  15
BRANCH   2  26
ATOM     26  O   UNK A   0       3.878   0.374 -23.113  0.00  0.00    -0.503 OA
ATOM     27  H   UNK A   0       3.617  -0.192 -22.414  0.00  0.00    +0.292 HD
ENDBRANCH   2  26
BRANCH   3  28
ATOM     28  O   UNK A   0       6.406   0.424 -22.511  0.00  0.00    -0.503 OA
ATOM     29  H   UNK A   0       7.173   0.329 -23.041  0.00  0.00    +0.292 HD
ENDBRANCH   3  28
BRANCH   1  30
ATOM     30  C   UNK A   0       2.515   2.589 -23.186  0.00  0.00    +0.041 C 
BRANCH  30  31
ATOM     31  C   UNK A   0       1.623   2.505 -22.244  0.00  0.00    +0.005 C 
BRANCH  31  32
ATOM     32  C   UNK A   0       0.743   1.549 -22.264  0.00  0.00    +0.000 C 
BRANCH  32  33
ATOM     33  C   UNK A   0      -0.141   1.457 -21.313  0.00  0.00    +0.000 C 
BRANCH  33  34
ATOM     34  C   UNK A   0      -1.385   1.750 -21.552  0.00  0.00    +0.000 C 
BRANCH  34  35
ATOM     35  C   UNK A   0      -1.897   2.844 -21.072  0.00  0.00    +0.000 C 
BRANCH  35  36
ATOM     36  C   UNK A   0      -2.310   3.776 -21.879  0.00  0.00    -0.000 C 
BRANCH  36  37
ATOM     37  C   UNK A   0      -1.450   4.562 -22.456  0.00  0.00    -0.000 C 
BRANCH  37  38
ATOM     38  C   UNK A   0      -1.515   4.767 -23.738  0.00  0.00    -0.000 C 
BRANCH  38  40
ATOM     39  C   UNK A   0      -0.213   3.767 -25.279  0.00  0.00    +0.004 C 
ATOM     40  C   UNK A   0      -1.299   3.788 -24.565  0.00  0.00    -0.003 C 
ENDBRANCH  38  40
ENDBRANCH  37  38
ENDBRANCH  36  37
ENDBRANCH  35  36
ENDBRANCH  34  35
ENDBRANCH  33  34
ENDBRANCH  32  33
ENDBRANCH  31  32
ENDBRANCH  30  31
ENDBRANCH   1  30
TORSDOF 16
ENDMDL
MODEL 4
REMARK VINA RESULT:    -7.580      3.200      8.323
REMARK INTER + INTRA:         -14.039
REMARK INTER:                 -13.272
REMARK INTRA:                  -0.767
REMARK UNBOUND:                 0.189
REMARK  Name = ZINC000085340961
REMARK  19 active torsions:
REMARK  status: ('A' for Active; 'I' for Inactive)
REMARK    1  A    between atoms: C_1  and  C_2
REMARK    2  A    between atoms: C_2  and  C_3
REMARK    3  A    between atoms: C_3  and  C_4
REMARK    4  A    between atoms: C_4  and  C_5
REMARK    5  A    between atoms: C_5  and  C_6
REMARK    6  A    between atoms: C_6  and  C_7
REMARK    7  A    between atoms: C_7  and  C_8
REMARK    8  A    between atoms: C_8  and  C_9
REMARK    9  A    between atoms: C_9  and  C_10
REMARK   10  A    between atoms: C_10  and  C_11
REMARK   11  A    between atoms: C_11  and  C_12
REMARK   12  A    between atoms: C_13  and  O_14
REMARK   13  A    between atoms: C_15  and  O_16
REMARK   14  A    between atoms: C_22  and  C_23
REMARK   15  A    between atoms: N_25  and  CA_26
REMARK   16  A    between atoms: CA_26  and  C_27
REMARK   17  A    between atoms: CA_26  and  CB_30
REMARK   18  A    between atoms: CB_30  and  CG1_31
REMARK   19  A    between atoms: CB_30  and  CG2_32
REMARK                            x       y       z     vdW  Elec       q    Type
REMARK                         _______ _______ _______ _____ _____    ______ ____
ROOT
ATOM      1  C   UNK A   0       3.793   2.674 -22.885  0.00  0.00    +0.025 A 
ATOM      2  C   UNK A   0       4.460   1.560 -22.849  0.00  0.00    +0.164 A 
ATOM      3  C   UNK A   0       5.727   1.566 -22.556  0.00  0.00    +0.161 A 
ATOM      4  C   UNK A   0       6.327   2.690 -22.298  0.00  0.00    +0.079 A 
ATOM      5  C   UNK A   0       5.662   3.805 -22.333  0.00  0.00    +0.094 A 
ATOM      6  N   UNK A   0       6.264   4.928 -22.074  0.00  0.00    -0.243 NA
ATOM      7  C   UNK A   0       5.600   6.045 -22.109  0.00  0.00    +0.091 A 
ATOM      8  C   UNK A   0       6.201   7.168 -21.851  0.00  0.00    +0.043 A 
ATOM      9  C   UNK A   0       5.537   8.285 -21.885  0.00  0.00    +0.039 A 
ATOM     10  C   UNK A   0       4.271   8.278 -22.178  0.00  0.00    +0.015 A 
ATOM     11  C   UNK A   0       3.667   7.156 -22.437  0.00  0.00    +0.030 A 
ATOM     12  C   UNK A   0       4.333   6.038 -22.402  0.00  0.00    +0.090 A 
ATOM     13  N   UNK A   0       3.730   4.915 -22.661  0.00  0.00    -0.243 NA
ATOM     14  C   UNK A   0       4.396   3.799 -22.626  0.00  0.00    +0.097 A 
ENDROOT
BRANCH   9  15
ATOM     15  C   UNK A   0       6.139   9.407 -21.627  0.00  0.00    +0.245 C 
ATOM     16  N   VAL A   1       5.998  10.420 -22.429  0.00  0.00    -0.303 N 
ATOM     17  H   VAL A   1       5.435  10.337 -23.233  0.00  0.00    +0.150 HD
ATOM     18  O   UNK A   0       6.882   9.517 -20.566  0.00  0.00    -0.270 OA
BRANCH  16  19
ATOM     19  CA  VAL A   1       6.600  11.543 -22.171  0.00  0.00    +0.121 C 
BRANCH  19  20
ATOM     20  C   VAL A   1       5.971  12.487 -21.536  0.00  0.00    +0.062 C 
ATOM     21  OXT VAL A   1       6.036  12.554 -20.240  0.00  0.00    -0.548 OA
ATOM     22  O   VAL A   1       5.276  13.364 -22.198  0.00  0.00    -0.548 OA
ENDBRANCH  19  20
BRANCH  19  23
ATOM     23  CB  VAL A   1       7.831  11.723 -22.548  0.00  0.00    +0.009 C 
ATOM     24  CG2 VAL A   1       8.624  12.473 -21.840  0.00  0.00    +0.009 C 
ATOM     25  CG1 VAL A   1       8.270  11.153 -23.631  0.00  0.00    +0.009 C 
ENDBRANCH  19  23
ENDBRANCH  16  19
ENDBRANCH   9  15
BRANCH   2  26
ATOM     26  O   UNK A   0       3.860   0.435 -23.108  0.00  0.00    -0.503 OA
ATOM     27  H   UNK A   0       3.676  -0.167 -22.414  0.00  0.00    +0.292 HD
ENDBRANCH   2  26
BRANCH   3  28
ATOM     28  O   UNK A   0       6.393   0.451 -22.521  0.00  0.00    -0.503 OA
ATOM     29  H   UNK A   0       6.248  -0.159 -21.824  0.00  0.00    +0.292 HD
ENDBRANCH   3  28
BRANCH   1  30
ATOM     30  C   UNK A   0       2.528   2.669 -23.178  0.00  0.00    +0.041 C 
BRANCH  30  31
ATOM     31  C   UNK A   0       1.641   2.624 -22.229  0.00  0.00    +0.005 C 
BRANCH  31  32
ATOM     32  C   UNK A   0       0.603   1.849 -22.344  0.00  0.00    +0.000 C 
BRANCH  32  33
ATOM     33  C   UNK A   0      -0.285   1.805 -21.394  0.00  0.00    +0.000 C 
BRANCH  33  34
ATOM     34  C   UNK A   0      -1.547   1.937 -21.678  0.00  0.00    +0.000 C 
BRANCH  34  35
ATOM     35  C   UNK A   0      -2.323   2.615 -20.886  0.00  0.00    +0.000 C 
BRANCH  35  36
ATOM     36  C   UNK A   0      -2.830   3.745 -21.285  0.00  0.00    -0.000 C 
BRANCH  36  37
ATOM     37  C   UNK A   0      -3.480   3.804 -22.409  0.00  0.00    -0.000 C 
BRANCH  37  38
ATOM     38  C   UNK A   0      -4.739   3.481 -22.450  0.00  0.00    -0.000 C 
BRANCH  38  40
ATOM     39  C   UNK A   0      -4.875   4.039 -24.627  0.00  0.00    +0.004 C 
ATOM     40  C   UNK A   0      -5.455   3.788 -23.491  0.00  0.00    -0.003 C 
ENDBRANCH  38  40
ENDBRANCH  37  38
ENDBRANCH  36  37
ENDBRANCH  35  36
ENDBRANCH  34  35
ENDBRANCH  33  34
ENDBRANCH  32  33
ENDBRANCH  31  32
ENDBRANCH  30  31
ENDBRANCH   1  30
TORSDOF 16
ENDMDL
MODEL 5
REMARK VINA RESULT:    -7.370      1.845      3.185
REMARK INTER + INTRA:         -13.644
REMARK INTER:                 -12.117
REMARK INTRA:                  -1.526
REMARK UNBOUND:                 0.189
REMARK  Name = ZINC000085340961
REMARK  19 active torsions:
REMARK  status: ('A' for Active; 'I' for Inactive)
REMARK    1  A    between atoms: C_1  and  C_2
REMARK    2  A    between atoms: C_2  and  C_3
REMARK    3  A    between atoms: C_3  and  C_4
REMARK    4  A    between atoms: C_4  and  C_5
REMARK    5  A    between atoms: C_5  and  C_6
REMARK    6  A    between atoms: C_6  and  C_7
REMARK    7  A    between atoms: C_7  and  C_8
REMARK    8  A    between atoms: C_8  and  C_9
REMARK    9  A    between atoms: C_9  and  C_10
REMARK   10  A    between atoms: C_10  and  C_11
REMARK   11  A    between atoms: C_11  and  C_12
REMARK   12  A    between atoms: C_13  and  O_14
REMARK   13  A    between atoms: C_15  and  O_16
REMARK   14  A    between atoms: C_22  and  C_23
REMARK   15  A    between atoms: N_25  and  CA_26
REMARK   16  A    between atoms: CA_26  and  C_27
REMARK   17  A    between atoms: CA_26  and  CB_30
REMARK   18  A    between atoms: CB_30  and  CG1_31
REMARK   19  A    between atoms: CB_30  and  CG2_32
REMARK                            x       y       z     vdW  Elec       q    Type
REMARK                         _______ _______ _______ _____ _____    ______ ____
ROOT
ATOM      1  C   UNK A   0       6.797   7.816 -21.958  0.00  0.00    +0.025 A 
ATOM      2  C   UNK A   0       6.818   8.974 -21.369  0.00  0.00    +0.164 A 
ATOM      3  C   UNK A   0       5.708   9.532 -20.983  0.00  0.00    +0.161 A 
ATOM      4  C   UNK A   0       4.575   8.928 -21.188  0.00  0.00    +0.079 A 
ATOM      5  C   UNK A   0       4.552   7.770 -21.777  0.00  0.00    +0.094 A 
ATOM      6  N   UNK A   0       3.418   7.168 -21.980  0.00  0.00    -0.243 NA
ATOM      7  C   UNK A   0       3.393   6.010 -22.569  0.00  0.00    +0.091 A 
ATOM      8  C   UNK A   0       2.260   5.408 -22.773  0.00  0.00    +0.043 A 
ATOM      9  C   UNK A   0       2.234   4.249 -23.362  0.00  0.00    +0.039 A 
ATOM     10  C   UNK A   0       3.344   3.693 -23.747  0.00  0.00    +0.015 A 
ATOM     11  C   UNK A   0       4.479   4.293 -23.544  0.00  0.00    +0.030 A 
ATOM     12  C   UNK A   0       4.503   5.454 -22.954  0.00  0.00    +0.090 A 
ATOM     13  N   UNK A   0       5.638   6.055 -22.751  0.00  0.00    -0.243 NA
ATOM     14  C   UNK A   0       5.661   7.213 -22.162  0.00  0.00    +0.097 A 
ENDROOT
BRANCH   9  15
ATOM     15  C   UNK A   0       1.100   3.648 -23.565  0.00  0.00    +0.245 C 
ATOM     16  N   VAL A   1       0.079   3.913 -22.807  0.00  0.00    -0.303 N 
ATOM     17  H   VAL A   1       0.164   4.570 -22.078  0.00  0.00    +0.150 HD
ATOM     18  O   UNK A   0       0.987   2.781 -24.527  0.00  0.00    -0.270 OA
BRANCH  16  19
ATOM     19  CA  VAL A   1      -1.056   3.312 -23.010  0.00  0.00    +0.121 C 
BRANCH  19  20
ATOM     20  C   VAL A   1      -1.760   3.591 -24.067  0.00  0.00    +0.062 C 
ATOM     21  OXT VAL A   1      -2.121   2.642 -24.878  0.00  0.00    -0.548 OA
ATOM     22  O   VAL A   1      -2.103   4.821 -24.312  0.00  0.00    -0.548 OA
ENDBRANCH  19  20
BRANCH  19  23
ATOM     23  CB  VAL A   1      -1.487   2.430 -22.157  0.00  0.00    +0.009 C 
ATOM     24  CG2 VAL A   1      -2.640   2.596 -21.579  0.00  0.00    +0.009 C 
ATOM     25  CG1 VAL A   1      -0.766   1.385 -21.881  0.00  0.00    +0.009 C 
ENDBRANCH  19  23
ENDBRANCH  16  19
ENDBRANCH   9  15
BRANCH   2  26
ATOM     26  O   UNK A   0       7.952   9.579 -21.164  0.00  0.00    -0.503 OA
ATOM     27  H   UNK A   0       8.295   9.648 -20.295  0.00  0.00    +0.292 HD
ENDBRANCH   2  26
BRANCH   3  28
ATOM     28  O   UNK A   0       5.731  10.689 -20.395  0.00  0.00    -0.503 OA
ATOM     29  H   UNK A   0       5.812  11.471 -20.904  0.00  0.00    +0.292 HD
ENDBRANCH   3  28
BRANCH   1  30
ATOM     30  C   UNK A   0       7.905   7.260 -22.343  0.00  0.00    +0.041 C 
BRANCH  30  31
ATOM     31  C   UNK A   0       8.160   6.026 -22.022  0.00  0.00    +0.005 C 
BRANCH  31  32
ATOM     32  C   UNK A   0       8.405   5.712 -20.784  0.00  0.00    +0.000 C 
BRANCH  32  33
ATOM     33  C   UNK A   0       7.713   4.778 -20.201  0.00  0.00    +0.000 C 
BRANCH  33  34
ATOM     34  C   UNK A   0       7.158   3.841 -20.911  0.00  0.00    +0.000 C 
BRANCH  34  35
ATOM     35  C   UNK A   0       6.053   3.288 -20.507  0.00  0.00    +0.000 C 
BRANCH  35  36
ATOM     36  C   UNK A   0       5.597   2.230 -21.111  0.00  0.00    -0.000 C 
BRANCH  36  37
ATOM     37  C   UNK A   0       5.083   1.258 -20.418  0.00  0.00    -0.000 C 
BRANCH  37  38
ATOM     38  C   UNK A   0       4.309   0.386 -20.995  0.00  0.00    -0.000 C 
BRANCH  38  40
ATOM     39  C   UNK A   0       2.748   0.345 -22.617  0.00  0.00    +0.004 C 
ATOM     40  C   UNK A   0       3.145   0.748 -21.445  0.00  0.00    -0.003 C 
ENDBRANCH  38  40
ENDBRANCH  37  38
ENDBRANCH  36  37
ENDBRANCH  35  36
ENDBRANCH  34  35
ENDBRANCH  33  34
ENDBRANCH  32  33
ENDBRANCH  31  32
ENDBRANCH  30  31
ENDBRANCH   1  30
TORSDOF 16
ENDMDL
MODEL 6
REMARK VINA RESULT:    -7.337      2.527      8.668
REMARK INTER + INTRA:         -13.583
REMARK INTER:                 -12.161
REMARK INTRA:                  -1.422
REMARK UNBOUND:                 0.189
REMARK  Name = ZINC000085340961
REMARK  19 active torsions:
REMARK  status: ('A' for Active; 'I' for Inactive)
REMARK    1  A    between atoms: C_1  and  C_2
REMARK    2  A    between atoms: C_2  and  C_3
REMARK    3  A    between atoms: C_3  and  C_4
REMARK    4  A    between atoms: C_4  and  C_5
REMARK    5  A    between atoms: C_5  and  C_6
REMARK    6  A    between atoms: C_6  and  C_7
REMARK    7  A    between atoms: C_7  and  C_8
REMARK    8  A    between atoms: C_8  and  C_9
REMARK    9  A    between atoms: C_9  and  C_10
REMARK   10  A    between atoms: C_10  and  C_11
REMARK   11  A    between atoms: C_11  and  C_12
REMARK   12  A    between atoms: C_13  and  O_14
REMARK   13  A    between atoms: C_15  and  O_16
REMARK   14  A    between atoms: C_22  and  C_23
REMARK   15  A    between atoms: N_25  and  CA_26
REMARK   16  A    between atoms: CA_26  and  C_27
REMARK   17  A    between atoms: CA_26  and  CB_30
REMARK   18  A    between atoms: CB_30  and  CG1_31
REMARK   19  A    between atoms: CB_30  and  CG2_32
REMARK                            x       y       z     vdW  Elec       q    Type
REMARK                         _______ _______ _______ _____ _____    ______ ____
ROOT
ATOM      1  C   UNK A   0      -3.595   3.073 -24.731  0.00  0.00    +0.025 A 
ATOM      2  C   UNK A   0      -4.051   3.583 -25.835  0.00  0.00    +0.164 A 
ATOM      3  C   UNK A   0      -3.232   3.904 -26.794  0.00  0.00    +0.161 A 
ATOM      4  C   UNK A   0      -1.954   3.715 -26.645  0.00  0.00    +0.079 A 
ATOM      5  C   UNK A   0      -1.497   3.205 -25.541  0.00  0.00    +0.094 A 
ATOM      6  N   UNK A   0      -0.219   3.016 -25.394  0.00  0.00    -0.243 NA
ATOM      7  C   UNK A   0       0.240   2.506 -24.290  0.00  0.00    +0.091 A 
ATOM      8  C   UNK A   0       1.517   2.317 -24.143  0.00  0.00    +0.043 A 
ATOM      9  C   UNK A   0       1.978   1.807 -23.039  0.00  0.00    +0.039 A 
ATOM     10  C   UNK A   0       1.158   1.487 -22.082  0.00  0.00    +0.015 A 
ATOM     11  C   UNK A   0      -0.120   1.675 -22.227  0.00  0.00    +0.030 A 
ATOM     12  C   UNK A   0      -0.579   2.186 -23.333  0.00  0.00    +0.090 A 
ATOM     13  N   UNK A   0      -1.858   2.374 -23.479  0.00  0.00    -0.243 NA
ATOM     14  C   UNK A   0      -2.315   2.884 -24.584  0.00  0.00    +0.097 A 
ENDROOT
BRANCH   9  15
ATOM     15  C   UNK A   0       3.254   1.619 -22.893  0.00  0.00    +0.245 C 
ATOM     16  N   VAL A   1       3.848   2.006 -21.803  0.00  0.00    -0.303 N 
ATOM     17  H   VAL A   1       3.329   2.443 -21.088  0.00  0.00    +0.150 HD
ATOM     18  O   UNK A   0       3.939   1.043 -23.836  0.00  0.00    -0.270 OA
BRANCH  16  19
ATOM     19  CA  VAL A   1       5.126   1.818 -21.656  0.00  0.00    +0.121 C 
BRANCH  19  20
ATOM     20  C   VAL A   1       5.579   0.634 -21.366  0.00  0.00    +0.062 C 
ATOM     21  OXT VAL A   1       6.439   0.057 -22.151  0.00  0.00    -0.548 OA
ATOM     22  O   VAL A   1       5.172   0.028 -20.291  0.00  0.00    -0.548 OA
ENDBRANCH  19  20
BRANCH  19  23
ATOM     23  CB  VAL A   1       5.951   2.812 -21.799  0.00  0.00    +0.009 C 
ATOM     24  CG2 VAL A   1       6.328   3.497 -20.760  0.00  0.00    +0.009 C 
ATOM     25  CG1 VAL A   1       6.399   3.121 -22.979  0.00  0.00    +0.009 C 
ENDBRANCH  19  23
ENDBRANCH  16  19
ENDBRANCH   9  15
BRANCH   2  26
ATOM     26  O   UNK A   0      -5.330   3.773 -25.985  0.00  0.00    -0.503 OA
ATOM     27  H   UNK A   0      -5.693   4.628 -25.861  0.00  0.00    +0.292 HD
ENDBRANCH   2  26
BRANCH   3  28
ATOM     28  O   UNK A   0      -3.689   4.414 -27.898  0.00  0.00    -0.503 OA
ATOM     29  H   UNK A   0      -3.549   3.971 -28.711  0.00  0.00    +0.292 HD
ENDBRANCH   3  28
BRANCH   1  30
ATOM     30  C   UNK A   0      -4.413   2.752 -23.774  0.00  0.00    +0.041 C 
BRANCH  30  31
ATOM     31  C   UNK A   0      -5.203   3.650 -23.265  0.00  0.00    +0.005 C 
BRANCH  31  32
ATOM     32  C   UNK A   0      -6.102   3.306 -22.391  0.00  0.00    +0.000 C 
BRANCH  32  33
ATOM     33  C   UNK A   0      -5.742   2.952 -21.192  0.00  0.00    +0.000 C 
BRANCH  33  34
ATOM     34  C   UNK A   0      -4.795   2.076 -21.029  0.00  0.00    +0.000 C 
BRANCH  34  35
ATOM     35  C   UNK A   0      -3.760   2.367 -20.299  0.00  0.00    +0.000 C 
BRANCH  35  36
ATOM     36  C   UNK A   0      -3.456   3.611 -20.070  0.00  0.00    -0.000 C 
BRANCH  36  37
ATOM     37  C   UNK A   0      -2.291   4.069 -20.420  0.00  0.00    -0.000 C 
BRANCH  37  38
ATOM     38  C   UNK A   0      -2.198   4.946 -21.376  0.00  0.00    -0.000 C 
BRANCH  38  40
ATOM     39  C   UNK A   0      -0.952   5.742 -23.074  0.00  0.00    +0.004 C 
ATOM     40  C   UNK A   0      -1.035   5.240 -21.878  0.00  0.00    -0.003 C 
ENDBRANCH  38  40
ENDBRANCH  37  38
ENDBRANCH  36  37
ENDBRANCH  35  36
ENDBRANCH  34  35
ENDBRANCH  33  34
ENDBRANCH  32  33
ENDBRANCH  31  32
ENDBRANCH  30  31
ENDBRANCH   1  30
TORSDOF 16
ENDMDL
MODEL 7
REMARK VINA RESULT:    -6.478      4.277      8.475
REMARK INTER + INTRA:         -11.970
REMARK INTER:                 -10.903
REMARK INTRA:                  -1.067
REMARK UNBOUND:                 0.189
REMARK  Name = ZINC000085340961
REMARK  19 active torsions:
REMARK  status: ('A' for Active; 'I' for Inactive)
REMARK    1  A    between atoms: C_1  and  C_2
REMARK    2  A    between atoms: C_2  and  C_3
REMARK    3  A    between atoms: C_3  and  C_4
REMARK    4  A    between atoms: C_4  and  C_5
REMARK    5  A    between atoms: C_5  and  C_6
REMARK    6  A    between atoms: C_6  and  C_7
REMARK    7  A    between atoms: C_7  and  C_8
REMARK    8  A    between atoms: C_8  and  C_9
REMARK    9  A    between atoms: C_9  and  C_10
REMARK   10  A    between atoms: C_10  and  C_11
REMARK   11  A    between atoms: C_11  and  C_12
REMARK   12  A    between atoms: C_13  and  O_14
REMARK   13  A    between atoms: C_15  and  O_16
REMARK   14  A    between atoms: C_22  and  C_23
REMARK   15  A    between atoms: N_25  and  CA_26
REMARK   16  A    between atoms: CA_26  and  C_27
REMARK   17  A    between atoms: CA_26  and  CB_30
REMARK   18  A    between atoms: CB_30  and  CG1_31
REMARK   19  A    between atoms: CB_30  and  CG2_32
REMARK                            x       y       z     vdW  Elec       q    Type
REMARK                         _______ _______ _______ _____ _____    ______ ____
ROOT
ATOM      1  C   UNK A   0       5.072   3.627 -23.054  0.00  0.00    +0.025 A 
ATOM      2  C   UNK A   0       4.116   2.900 -23.549  0.00  0.00    +0.164 A 
ATOM      3  C   UNK A   0       2.930   3.407 -23.721  0.00  0.00    +0.161 A 
ATOM      4  C   UNK A   0       2.703   4.646 -23.397  0.00  0.00    +0.079 A 
ATOM      5  C   UNK A   0       3.658   5.374 -22.902  0.00  0.00    +0.094 A 
ATOM      6  N   UNK A   0       3.428   6.612 -22.578  0.00  0.00    -0.243 NA
ATOM      7  C   UNK A   0       4.383   7.343 -22.082  0.00  0.00    +0.091 A 
ATOM      8  C   UNK A   0       4.154   8.580 -21.759  0.00  0.00    +0.043 A 
ATOM      9  C   UNK A   0       5.107   9.311 -21.263  0.00  0.00    +0.039 A 
ATOM     10  C   UNK A   0       6.291   8.802 -21.092  0.00  0.00    +0.015 A 
ATOM     11  C   UNK A   0       6.523   7.565 -21.415  0.00  0.00    +0.030 A 
ATOM     12  C   UNK A   0       5.566   6.834 -21.911  0.00  0.00    +0.090 A 
ATOM     13  N   UNK A   0       5.797   5.596 -22.235  0.00  0.00    -0.243 NA
ATOM     14  C   UNK A   0       4.842   4.867 -22.730  0.00  0.00    +0.097 A 
ENDROOT
BRANCH   9  15
ATOM     15  C   UNK A   0       4.878  10.548 -20.940  0.00  0.00    +0.245 C 
ATOM     16  N   VAL A   1       3.658  10.995 -20.906  0.00  0.00    -0.303 N 
ATOM     17  H   VAL A   1       2.908  10.396 -21.126  0.00  0.00    +0.150 HD
ATOM     18  O   UNK A   0       5.868  11.339 -20.649  0.00  0.00    -0.270 OA
BRANCH  16  19
ATOM     19  CA  VAL A   1       3.427  12.233 -20.583  0.00  0.00    +0.121 C 
BRANCH  19  20
ATOM     20  C   VAL A   1       3.607  12.629 -19.357  0.00  0.00    +0.062 C 
ATOM     21  OXT VAL A   1       4.533  13.499 -19.084  0.00  0.00    -0.548 OA
ATOM     22  O   VAL A   1       2.859  12.155 -18.406  0.00  0.00    -0.548 OA
ENDBRANCH  19  20
BRANCH  19  23
ATOM     23  CB  VAL A   1       3.018  13.076 -21.484  0.00  0.00    +0.009 C 
ATOM     24  CG2 VAL A   1       3.837  13.494 -22.402  0.00  0.00    +0.009 C 
ATOM     25  CG1 VAL A   1       1.789  13.500 -21.467  0.00  0.00    +0.009 C 
ENDBRANCH  19  23
ENDBRANCH  16  19
ENDBRANCH   9  15
BRANCH   2  26
ATOM     26  O   UNK A   0       4.343   1.660 -23.874  0.00  0.00    -0.503 OA
ATOM     27  H   UNK A   0       3.827   1.249 -24.539  0.00  0.00    +0.292 HD
ENDBRANCH   2  26
BRANCH   3  28
ATOM     28  O   UNK A   0       1.976   2.679 -24.216  0.00  0.00    -0.503 OA
ATOM     29  H   UNK A   0       1.605   2.896 -25.049  0.00  0.00    +0.292 HD
ENDBRANCH   3  28
BRANCH   1  30
ATOM     30  C   UNK A   0       6.255   3.120 -22.883  0.00  0.00    +0.041 C 
BRANCH  30  31
ATOM     31  C   UNK A   0       7.168   3.275 -23.795  0.00  0.00    +0.005 C 
BRANCH  31  32
ATOM     32  C   UNK A   0       8.316   3.802 -23.484  0.00  0.00    +0.000 C 
BRANCH  32  33
ATOM     33  C   UNK A   0       8.913   4.600 -24.320  0.00  0.00    +0.000 C 
BRANCH  33  34
ATOM     34  C   UNK A   0       8.678   4.499 -25.595  0.00  0.00    +0.000 C 
BRANCH  34  35
ATOM     35  C   UNK A   0       8.751   5.551 -26.354  0.00  0.00    +0.000 C 
BRANCH  35  36
ATOM     36  C   UNK A   0       8.496   5.454 -27.626  0.00  0.00    -0.000 C 
BRANCH  36  37
ATOM     37  C   UNK A   0       8.401   6.528 -28.353  0.00  0.00    -0.000 C 
BRANCH  37  38
ATOM     38  C   UNK A   0       7.517   7.435 -28.061  0.00  0.00    -0.000 C 
BRANCH  38  40
ATOM     39  C   UNK A   0       5.898   8.786 -28.851  0.00  0.00    +0.004 C 
ATOM     40  C   UNK A   0       6.506   7.636 -28.853  0.00  0.00    -0.003 C 
ENDBRANCH  38  40
ENDBRANCH  37  38
ENDBRANCH  36  37
ENDBRANCH  35  36
ENDBRANCH  34  35
ENDBRANCH  33  34
ENDBRANCH  32  33
ENDBRANCH  31  32
ENDBRANCH  30  31
ENDBRANCH   1  30
TORSDOF 16
ENDMDL
MODEL 8
REMARK VINA RESULT:    -6.275      2.287      8.789
REMARK INTER + INTRA:         -11.588
REMARK INTER:                 -11.777
REMARK INTRA:                   0.189
REMARK UNBOUND:                 0.189
REMARK  Name = ZINC000085340961
REMARK  19 active torsions:
REMARK  status: ('A' for Active; 'I' for Inactive)
REMARK    1  A    between atoms: C_1  and  C_2
REMARK    2  A    between atoms: C_2  and  C_3
REMARK    3  A    between atoms: C_3  and  C_4
REMARK    4  A    between atoms: C_4  and  C_5
REMARK    5  A    between atoms: C_5  and  C_6
REMARK    6  A    between atoms: C_6  and  C_7
REMARK    7  A    between atoms: C_7  and  C_8
REMARK    8  A    between atoms: C_8  and  C_9
REMARK    9  A    between atoms: C_9  and  C_10
REMARK   10  A    between atoms: C_10  and  C_11
REMARK   11  A    between atoms: C_11  and  C_12
REMARK   12  A    between atoms: C_13  and  O_14
REMARK   13  A    between atoms: C_15  and  O_16
REMARK   14  A    between atoms: C_22  and  C_23
REMARK   15  A    between atoms: N_25  and  CA_26
REMARK   16  A    between atoms: CA_26  and  C_27
REMARK   17  A    between atoms: CA_26  and  CB_30
REMARK   18  A    between atoms: CB_30  and  CG1_31
REMARK   19  A    between atoms: CB_30  and  CG2_32
REMARK                            x       y       z     vdW  Elec       q    Type
REMARK                         _______ _______ _______ _____ _____    ______ ____
ROOT
ATOM      1  C   UNK A   0      -1.097   3.206 -22.234  0.00  0.00    +0.025 A 
ATOM      2  C   UNK A   0      -1.745   2.162 -21.812  0.00  0.00    +0.164 A 
ATOM      3  C   UNK A   0      -1.100   1.083 -21.477  0.00  0.00    +0.161 A 
ATOM      4  C   UNK A   0       0.197   1.050 -21.566  0.00  0.00    +0.079 A 
ATOM      5  C   UNK A   0       0.846   2.093 -21.988  0.00  0.00    +0.094 A 
ATOM      6  N   UNK A   0       2.143   2.057 -22.076  0.00  0.00    -0.243 NA
ATOM      7  C   UNK A   0       2.795   3.100 -22.499  0.00  0.00    +0.091 A 
ATOM      8  C   UNK A   0       4.091   3.065 -22.587  0.00  0.00    +0.043 A 
ATOM      9  C   UNK A   0       4.743   4.107 -23.009  0.00  0.00    +0.039 A 
ATOM     10  C   UNK A   0       4.098   5.184 -23.343  0.00  0.00    +0.015 A 
ATOM     11  C   UNK A   0       2.801   5.222 -23.255  0.00  0.00    +0.030 A 
ATOM     12  C   UNK A   0       2.149   4.177 -22.832  0.00  0.00    +0.090 A 
ATOM     13  N   UNK A   0       0.852   4.214 -22.745  0.00  0.00    -0.243 NA
ATOM     14  C   UNK A   0       0.202   3.170 -22.322  0.00  0.00    +0.097 A 
ENDROOT
BRANCH   9  15
ATOM     15  C   UNK A   0       6.039   4.071 -23.097  0.00  0.00    +0.245 C 
ATOM     16  N   VAL A   1       6.672   4.999 -23.752  0.00  0.00    -0.303 N 
ATOM     17  H   VAL A   1       6.169   5.729 -24.181  0.00  0.00    +0.150 HD
ATOM     18  O   UNK A   0       6.703   3.108 -22.531  0.00  0.00    -0.270 OA
BRANCH  16  19
ATOM     19  CA  VAL A   1       7.968   4.964 -23.840  0.00  0.00    +0.121 C 
BRANCH  19  20
ATOM     20  C   VAL A   1       8.698   5.547 -22.935  0.00  0.00    +0.062 C 
ATOM     21  OXT VAL A   1       9.062   4.893 -21.873  0.00  0.00    -0.548 OA
ATOM     22  O   VAL A   1       9.062   6.784 -23.094  0.00  0.00    -0.548 OA
ENDBRANCH  19  20
BRANCH  19  23
ATOM     23  CB  VAL A   1       8.536   4.345 -24.832  0.00  0.00    +0.009 C 
ATOM     24  CG2 VAL A   1       8.711   4.959 -25.965  0.00  0.00    +0.009 C 
ATOM     25  CG1 VAL A   1       8.929   3.114 -24.693  0.00  0.00    +0.009 C 
ENDBRANCH  19  23
ENDBRANCH  16  19
ENDBRANCH   9  15
BRANCH   2  26
ATOM     26  O   UNK A   0      -3.043   2.195 -21.722  0.00  0.00    -0.503 OA
ATOM     27  H   UNK A   0      -3.536   1.401 -21.778  0.00  0.00    +0.292 HD
ENDBRANCH   2  26
BRANCH   3  28
ATOM     28  O   UNK A   0      -1.750   0.041 -21.055  0.00  0.00    -0.503 OA
ATOM     29  H   UNK A   0      -2.680  -0.003 -21.155  0.00  0.00    +0.292 HD
ENDBRANCH   3  28
BRANCH   1  30
ATOM     30  C   UNK A   0      -1.741   4.283 -22.568  0.00  0.00    +0.041 C 
BRANCH  30  31
ATOM     31  C   UNK A   0      -1.319   5.013 -23.557  0.00  0.00    +0.005 C 
BRANCH  31  32
ATOM     32  C   UNK A   0      -1.852   4.884 -24.736  0.00  0.00    +0.000 C 
BRANCH  32  33
ATOM     33  C   UNK A   0      -1.737   3.761 -25.382  0.00  0.00    +0.000 C 
BRANCH  33  34
ATOM     34  C   UNK A   0      -2.669   3.389 -26.208  0.00  0.00    +0.000 C 
BRANCH  34  35
ATOM     35  C   UNK A   0      -3.766   2.858 -25.753  0.00  0.00    +0.000 C 
BRANCH  35  36
ATOM     36  C   UNK A   0      -4.892   3.498 -25.867  0.00  0.00    -0.000 C 
BRANCH  36  37
ATOM     37  C   UNK A   0      -5.433   4.051 -24.822  0.00  0.00    -0.000 C 
BRANCH  37  38
ATOM     38  C   UNK A   0      -5.139   3.618 -23.631  0.00  0.00    -0.000 C 
BRANCH  38  40
ATOM     39  C   UNK A   0      -5.854   2.872 -21.631  0.00  0.00    +0.004 C 
ATOM     40  C   UNK A   0      -6.059   3.560 -22.715  0.00  0.00    -0.003 C 
ENDBRANCH  38  40
ENDBRANCH  37  38
ENDBRANCH  36  37
ENDBRANCH  35  36
ENDBRANCH  34  35
ENDBRANCH  33  34
ENDBRANCH  32  33
ENDBRANCH  31  32
ENDBRANCH  30  31
ENDBRANCH   1  30
TORSDOF 16
ENDMDL
