MODEL 1
REMARK VINA RESULT:    -8.839      0.000      0.000
REMARK INTER + INTRA:          -8.106
REMARK INTER:                 -10.447
REMARK INTRA:                   2.341
REMARK UNBOUND:                 2.283
REMARK  Name = ZINC000000323340
REMARK  4 active torsions:
REMARK  status: ('A' for Active; 'I' for Inactive)
REMARK    1  A    between atoms: C_2  and  C_3
REMARK    2  A    between atoms: C_4  and  N_5
REMARK    3  A    between atoms: C_18  and  C_19
REMARK    4  A    between atoms: C_22  and  O_23
REMARK                            x       y       z     vdW  Elec       q    Type
REMARK                         _______ _______ _______ _____ _____    ______ ____
ROOT
ATOM      1  C   UNL     1       3.020   4.564 -22.887  0.00  0.00    +0.098 C 
ATOM      2  C   UNL     1       2.237   5.507 -23.317  0.00  0.00    +0.199 C 
ATOM      3  O   UNL     1       0.997   5.242 -23.607  0.00  0.00    -0.440 OA
ATOM      4  C   UNL     1       0.542   4.032 -23.466  0.00  0.00    +0.152 A 
ATOM      5  C   UNL     1       1.325   3.089 -23.036  0.00  0.00    +0.092 A 
ATOM      6  C   UNL     1       0.870   1.879 -22.895  0.00  0.00    +0.345 A 
ATOM      7  O   UNL     1      -0.368   1.613 -23.184  0.00  0.00    -0.422 OA
ATOM      8  C   UNL     1      -1.152   2.557 -23.615  0.00  0.00    +0.143 A 
ATOM      9  C   UNL     1      -2.392   2.291 -23.904  0.00  0.00    +0.047 A 
ATOM     10  C   UNL     1      -3.175   3.234 -24.335  0.00  0.00    +0.004 A 
ATOM     11  C   UNL     1      -2.720   4.444 -24.476  0.00  0.00    +0.001 A 
ATOM     12  C   UNL     1      -1.481   4.710 -24.186  0.00  0.00    +0.015 A 
ATOM     13  O   UNL     1       1.655   0.935 -22.464  0.00  0.00    -0.245 OA
ATOM     14  C   UNL     1      -0.697   3.766 -23.756  0.00  0.00    +0.060 A 
ATOM     15  C   UNL     1       2.565   3.355 -22.746  0.00  0.00    +0.105 C 
ENDROOT
BRANCH  15  16
ATOM     16  C   UNL     1       3.349   2.411 -22.315  0.00  0.00    -0.034 A 
ATOM     17  C   UNL     1       4.113   1.770 -23.149  0.00  0.00    +0.008 A 
ATOM     18  C   UNL     1       4.896   0.827 -22.718  0.00  0.00    +0.046 A 
ATOM     19  C   UNL     1       4.916   0.524 -21.453  0.00  0.00    +0.117 A 
ATOM     20  C   UNL     1       4.151   1.165 -20.620  0.00  0.00    +0.046 A 
ATOM     21  C   UNL     1       3.367   2.109 -21.051  0.00  0.00    +0.008 A 
BRANCH  19  22
ATOM     22  O   UNL     1       5.699  -0.419 -21.023  0.00  0.00    -0.507 OA
ATOM     23  H   UNL     1       5.883  -0.494 -20.107  0.00  0.00    +0.292 HD
ENDBRANCH  19  22
ENDBRANCH  15  16
BRANCH   2  24
ATOM     24  N   UNL     1       2.692   6.717 -23.458  0.00  0.00    -0.328 N 
ATOM     25  H   UNL     1       3.544   6.871 -23.928  0.00  0.00    +0.145 HD
ATOM     26  H   UNL     1       2.186   7.479 -23.096  0.00  0.00    +0.145 HD
ENDBRANCH   2  24
BRANCH   1  28
ATOM     27  N   UNL     1       5.498   5.097 -22.308  0.00  0.00    -0.191 NA
ATOM     28  C   UNL     1       4.259   4.830 -22.597  0.00  0.00    +0.101 C 
ENDBRANCH   1  28
TORSDOF 4
ENDMDL
MODEL 2
REMARK VINA RESULT:    -8.683      2.392      3.090
REMARK INTER + INTRA:          -7.923
REMARK INTER:                 -10.211
REMARK INTRA:                   2.288
REMARK UNBOUND:                 2.283
REMARK  Name = ZINC000000323340
REMARK  4 active torsions:
REMARK  status: ('A' for Active; 'I' for Inactive)
REMARK    1  A    between atoms: C_2  and  C_3
REMARK    2  A    between atoms: C_4  and  N_5
REMARK    3  A    between atoms: C_18  and  C_19
REMARK    4  A    between atoms: C_22  and  O_23
REMARK                            x       y       z     vdW  Elec       q    Type
REMARK                         _______ _______ _______ _____ _____    ______ ____
ROOT
ATOM      1  C   UNL     1       0.410   2.829 -24.462  0.00  0.00    +0.098 C 
ATOM      2  C   UNL     1      -0.649   3.300 -25.050  0.00  0.00    +0.199 C 
ATOM      3  O   UNL     1      -1.789   3.316 -24.424  0.00  0.00    -0.440 OA
ATOM      4  C   UNL     1      -1.868   2.860 -23.209  0.00  0.00    +0.152 A 
ATOM      5  C   UNL     1      -0.809   2.389 -22.620  0.00  0.00    +0.092 A 
ATOM      6  C   UNL     1      -0.888   1.934 -21.405  0.00  0.00    +0.345 A 
ATOM      7  O   UNL     1      -2.027   1.950 -20.778  0.00  0.00    -0.422 OA
ATOM      8  C   UNL     1      -3.086   2.421 -21.367  0.00  0.00    +0.143 A 
ATOM      9  C   UNL     1      -4.225   2.436 -20.740  0.00  0.00    +0.047 A 
ATOM     10  C   UNL     1      -5.284   2.907 -21.328  0.00  0.00    +0.004 A 
ATOM     11  C   UNL     1      -5.205   3.363 -22.543  0.00  0.00    +0.001 A 
ATOM     12  C   UNL     1      -4.065   3.347 -23.170  0.00  0.00    +0.015 A 
ATOM     13  O   UNL     1       0.172   1.463 -20.817  0.00  0.00    -0.245 OA
ATOM     14  C   UNL     1      -3.006   2.876 -22.582  0.00  0.00    +0.060 A 
ATOM     15  C   UNL     1       0.330   2.374 -23.247  0.00  0.00    +0.105 C 
ENDROOT
BRANCH  15  16
ATOM     16  C   UNL     1       1.390   1.903 -22.659  0.00  0.00    -0.034 A 
ATOM     17  C   UNL     1       1.675   0.638 -22.748  0.00  0.00    +0.008 A 
ATOM     18  C   UNL     1       2.734   0.168 -22.160  0.00  0.00    +0.046 A 
ATOM     19  C   UNL     1       3.508   0.962 -21.481  0.00  0.00    +0.117 A 
ATOM     20  C   UNL     1       3.223   2.227 -21.391  0.00  0.00    +0.046 A 
ATOM     21  C   UNL     1       2.163   2.698 -21.980  0.00  0.00    +0.008 A 
BRANCH  19  22
ATOM     22  O   UNL     1       4.567   0.491 -20.893  0.00  0.00    -0.507 OA
ATOM     23  H   UNL     1       5.404   0.881 -21.052  0.00  0.00    +0.292 HD
ENDBRANCH  19  22
ENDBRANCH  15  16
BRANCH   2  24
ATOM     24  N   UNL     1      -0.570   3.755 -26.265  0.00  0.00    -0.328 N 
ATOM     25  H   UNL     1       0.224   3.557 -26.815  0.00  0.00    +0.145 HD
ATOM     26  H   UNL     1      -1.301   4.298 -26.637  0.00  0.00    +0.145 HD
ENDBRANCH   2  24
BRANCH   1  28
ATOM     27  N   UNL     1       2.687   2.797 -25.716  0.00  0.00    -0.191 NA
ATOM     28  C   UNL     1       1.548   2.813 -25.089  0.00  0.00    +0.101 C 
ENDBRANCH   1  28
TORSDOF 4
ENDMDL
MODEL 3
REMARK VINA RESULT:    -8.470      2.541      3.495
REMARK INTER + INTRA:          -7.672
REMARK INTER:                  -9.959
REMARK INTRA:                   2.287
REMARK UNBOUND:                 2.283
REMARK  Name = ZINC000000323340
REMARK  4 active torsions:
REMARK  status: ('A' for Active; 'I' for Inactive)
REMARK    1  A    between atoms: C_2  and  C_3
REMARK    2  A    between atoms: C_4  and  N_5
REMARK    3  A    between atoms: C_18  and  C_19
REMARK    4  A    between atoms: C_22  and  O_23
REMARK                            x       y       z     vdW  Elec       q    Type
REMARK                         _______ _______ _______ _____ _____    ______ ____
ROOT
ATOM      1  C   UNL     1       0.566   1.883 -21.977  0.00  0.00    +0.098 C 
ATOM      2  C   UNL     1      -0.698   1.710 -21.729  0.00  0.00    +0.199 C 
ATOM      3  O   UNL     1      -1.589   2.076 -22.603  0.00  0.00    -0.440 OA
ATOM      4  C   UNL     1      -1.215   2.615 -23.725  0.00  0.00    +0.152 A 
ATOM      5  C   UNL     1       0.049   2.788 -23.974  0.00  0.00    +0.092 A 
ATOM      6  C   UNL     1       0.423   3.327 -25.096  0.00  0.00    +0.345 A 
ATOM      7  O   UNL     1      -0.466   3.694 -25.969  0.00  0.00    -0.422 OA
ATOM      8  C   UNL     1      -1.730   3.521 -25.721  0.00  0.00    +0.143 A 
ATOM      9  C   UNL     1      -2.621   3.887 -26.595  0.00  0.00    +0.047 A 
ATOM     10  C   UNL     1      -3.885   3.714 -26.346  0.00  0.00    +0.004 A 
ATOM     11  C   UNL     1      -4.259   3.175 -25.224  0.00  0.00    +0.001 A 
ATOM     12  C   UNL     1      -3.369   2.809 -24.350  0.00  0.00    +0.015 A 
ATOM     13  O   UNL     1       1.688   3.500 -25.344  0.00  0.00    -0.245 OA
ATOM     14  C   UNL     1      -2.105   2.981 -24.599  0.00  0.00    +0.060 A 
ATOM     15  C   UNL     1       0.940   2.422 -23.100  0.00  0.00    +0.105 C 
ENDROOT
BRANCH  15  16
ATOM     16  C   UNL     1       2.204   2.595 -23.348  0.00  0.00    -0.034 A 
ATOM     17  C   UNL     1       2.894   1.643 -23.902  0.00  0.00    +0.008 A 
ATOM     18  C   UNL     1       4.158   1.816 -24.150  0.00  0.00    +0.046 A 
ATOM     19  C   UNL     1       4.732   2.942 -23.845  0.00  0.00    +0.117 A 
ATOM     20  C   UNL     1       4.042   3.895 -23.291  0.00  0.00    +0.046 A 
ATOM     21  C   UNL     1       2.777   3.721 -23.043  0.00  0.00    +0.008 A 
BRANCH  19  22
ATOM     22  O   UNL     1       5.996   3.115 -24.094  0.00  0.00    -0.507 OA
ATOM     23  H   UNL     1       6.505   2.412 -24.447  0.00  0.00    +0.292 HD
ENDBRANCH  19  22
ENDBRANCH  15  16
BRANCH   2  24
ATOM     24  N   UNL     1      -1.072   1.171 -20.607  0.00  0.00    -0.328 N 
ATOM     25  H   UNL     1      -2.000   0.859 -20.496  0.00  0.00    +0.145 HD
ATOM     26  H   UNL     1      -0.430   1.075 -19.868  0.00  0.00    +0.145 HD
ENDBRANCH   2  24
BRANCH   1  28
ATOM     27  N   UNL     1       2.345   1.151 -20.229  0.00  0.00    -0.191 NA
ATOM     28  C   UNL     1       1.456   1.517 -21.104  0.00  0.00    +0.101 C 
ENDBRANCH   1  28
TORSDOF 4
ENDMDL
MODEL 4
REMARK VINA RESULT:    -8.201      2.613      6.142
REMARK INTER + INTRA:          -7.357
REMARK INTER:                  -9.638
REMARK INTRA:                   2.281
REMARK UNBOUND:                 2.283
REMARK  Name = ZINC000000323340
REMARK  4 active torsions:
REMARK  status: ('A' for Active; 'I' for Inactive)
REMARK    1  A    between atoms: C_2  and  C_3
REMARK    2  A    between atoms: C_4  and  N_5
REMARK    3  A    between atoms: C_18  and  C_19
REMARK    4  A    between atoms: C_22  and  O_23
REMARK                            x       y       z     vdW  Elec       q    Type
REMARK                         _______ _______ _______ _____ _____    ______ ____
ROOT
ATOM      1  C   UNL     1      -0.018   2.865 -24.371  0.00  0.00    +0.098 C 
ATOM      2  C   UNL     1       1.112   2.589 -24.952  0.00  0.00    +0.199 C 
ATOM      3  O   UNL     1       2.093   2.086 -24.262  0.00  0.00    -0.440 OA
ATOM      4  C   UNL     1       1.942   1.858 -22.991  0.00  0.00    +0.152 A 
ATOM      5  C   UNL     1       0.813   2.133 -22.410  0.00  0.00    +0.092 A 
ATOM      6  C   UNL     1       0.663   1.906 -21.139  0.00  0.00    +0.345 A 
ATOM      7  O   UNL     1       1.642   1.402 -20.449  0.00  0.00    -0.422 OA
ATOM      8  C   UNL     1       2.772   1.127 -21.029  0.00  0.00    +0.143 A 
ATOM      9  C   UNL     1       3.752   0.623 -20.339  0.00  0.00    +0.047 A 
ATOM     10  C   UNL     1       4.882   0.348 -20.920  0.00  0.00    +0.004 A 
ATOM     11  C   UNL     1       5.032   0.575 -22.191  0.00  0.00    +0.001 A 
ATOM     12  C   UNL     1       4.052   1.079 -22.881  0.00  0.00    +0.015 A 
ATOM     13  O   UNL     1      -0.468   2.182 -20.558  0.00  0.00    -0.245 OA
ATOM     14  C   UNL     1       2.922   1.354 -22.300  0.00  0.00    +0.060 A 
ATOM     15  C   UNL     1      -0.168   2.637 -23.100  0.00  0.00    +0.105 C 
ENDROOT
BRANCH  15  16
ATOM     16  C   UNL     1      -1.297   2.913 -22.519  0.00  0.00    -0.034 A 
ATOM     17  C   UNL     1      -2.220   2.002 -22.427  0.00  0.00    +0.008 A 
ATOM     18  C   UNL     1      -3.349   2.278 -21.846  0.00  0.00    +0.046 A 
ATOM     19  C   UNL     1      -3.556   3.465 -21.357  0.00  0.00    +0.117 A 
ATOM     20  C   UNL     1      -2.634   4.376 -21.449  0.00  0.00    +0.046 A 
ATOM     21  C   UNL     1      -1.503   4.100 -22.031  0.00  0.00    +0.008 A 
BRANCH  19  22
ATOM     22  O   UNL     1      -4.686   3.741 -20.776  0.00  0.00    -0.507 OA
ATOM     23  H   UNL     1      -4.934   3.286 -19.995  0.00  0.00    +0.292 HD
ENDBRANCH  19  22
ENDBRANCH  15  16
BRANCH   2  24
ATOM     24  N   UNL     1       1.262   2.817 -26.223  0.00  0.00    -0.328 N 
ATOM     25  H   UNL     1       0.568   2.528 -26.860  0.00  0.00    +0.145 HD
ATOM     26  H   UNL     1       2.068   3.277 -26.549  0.00  0.00    +0.145 HD
ENDBRANCH   2  24
BRANCH   1  28
ATOM     27  N   UNL     1      -1.977   3.871 -25.752  0.00  0.00    -0.191 NA
ATOM     28  C   UNL     1      -0.997   3.368 -25.061  0.00  0.00    +0.101 C 
ENDBRANCH   1  28
TORSDOF 4
ENDMDL
MODEL 5
REMARK VINA RESULT:    -7.710      2.566      6.405
REMARK INTER + INTRA:          -6.780
REMARK INTER:                  -9.072
REMARK INTRA:                   2.292
REMARK UNBOUND:                 2.283
REMARK  Name = ZINC000000323340
REMARK  4 active torsions:
REMARK  status: ('A' for Active; 'I' for Inactive)
REMARK    1  A    between atoms: C_2  and  C_3
REMARK    2  A    between atoms: C_4  and  N_5
REMARK    3  A    between atoms: C_18  and  C_19
REMARK    4  A    between atoms: C_22  and  O_23
REMARK                            x       y       z     vdW  Elec       q    Type
REMARK                         _______ _______ _______ _____ _____    ______ ____
ROOT
ATOM      1  C   UNL     1       3.860   2.529 -23.291  0.00  0.00    +0.098 C 
ATOM      2  C   UNL     1       5.089   2.536 -22.867  0.00  0.00    +0.199 C 
ATOM      3  O   UNL     1       5.632   3.647 -22.467  0.00  0.00    -0.440 OA
ATOM      4  C   UNL     1       4.947   4.752 -22.491  0.00  0.00    +0.152 A 
ATOM      5  C   UNL     1       3.718   4.745 -22.915  0.00  0.00    +0.092 A 
ATOM      6  C   UNL     1       3.033   5.849 -22.939  0.00  0.00    +0.345 A 
ATOM      7  O   UNL     1       3.576   6.960 -22.539  0.00  0.00    -0.422 OA
ATOM      8  C   UNL     1       4.804   6.967 -22.115  0.00  0.00    +0.143 A 
ATOM      9  C   UNL     1       5.348   8.078 -21.715  0.00  0.00    +0.047 A 
ATOM     10  C   UNL     1       6.577   8.085 -21.291  0.00  0.00    +0.004 A 
ATOM     11  C   UNL     1       7.262   6.981 -21.267  0.00  0.00    +0.001 A 
ATOM     12  C   UNL     1       6.719   5.869 -21.667  0.00  0.00    +0.015 A 
ATOM     13  O   UNL     1       1.803   5.842 -23.364  0.00  0.00    -0.245 OA
ATOM     14  C   UNL     1       5.490   5.863 -22.091  0.00  0.00    +0.060 A 
ATOM     15  C   UNL     1       3.174   3.634 -23.315  0.00  0.00    +0.105 C 
ENDROOT
BRANCH  15  16
ATOM     16  C   UNL     1       1.946   3.627 -23.739  0.00  0.00    -0.034 A 
ATOM     17  C   UNL     1       0.972   3.397 -22.909  0.00  0.00    +0.008 A 
ATOM     18  C   UNL     1      -0.255   3.391 -23.334  0.00  0.00    +0.046 A 
ATOM     19  C   UNL     1      -0.511   3.614 -24.589  0.00  0.00    +0.117 A 
ATOM     20  C   UNL     1       0.462   3.843 -25.420  0.00  0.00    +0.046 A 
ATOM     21  C   UNL     1       1.691   3.850 -24.995  0.00  0.00    +0.008 A 
BRANCH  19  22
ATOM     22  O   UNL     1      -1.740   3.607 -25.013  0.00  0.00    -0.507 OA
ATOM     23  H   UNL     1      -2.408   3.186 -24.508  0.00  0.00    +0.292 HD
ENDBRANCH  19  22
ENDBRANCH  15  16
BRANCH   2  24
ATOM     24  N   UNL     1       5.774   1.432 -22.843  0.00  0.00    -0.328 N 
ATOM     25  H   UNL     1       6.652   1.387 -23.288  0.00  0.00    +0.145 HD
ATOM     26  H   UNL     1       5.417   0.640 -22.380  0.00  0.00    +0.145 HD
ENDBRANCH   2  24
BRANCH   1  28
ATOM     27  N   UNL     1       2.773   0.307 -24.090  0.00  0.00    -0.191 NA
ATOM     28  C   UNL     1       3.317   1.418 -23.691  0.00  0.00    +0.101 C 
ENDBRANCH   1  28
TORSDOF 4
ENDMDL
MODEL 6
REMARK VINA RESULT:    -7.268      3.379      7.086
REMARK INTER + INTRA:          -6.260
REMARK INTER:                  -8.612
REMARK INTRA:                   2.351
REMARK UNBOUND:                 2.283
REMARK  Name = ZINC000000323340
REMARK  4 active torsions:
REMARK  status: ('A' for Active; 'I' for Inactive)
REMARK    1  A    between atoms: C_2  and  C_3
REMARK    2  A    between atoms: C_4  and  N_5
REMARK    3  A    between atoms: C_18  and  C_19
REMARK    4  A    between atoms: C_22  and  O_23
REMARK                            x       y       z     vdW  Elec       q    Type
REMARK                         _______ _______ _______ _____ _____    ______ ____
ROOT
ATOM      1  C   UNL     1      -3.259   2.880 -22.130  0.00  0.00    +0.098 C 
ATOM      2  C   UNL     1      -2.852   2.510 -20.952  0.00  0.00    +0.199 C 
ATOM      3  O   UNL     1      -1.602   2.205 -20.763  0.00  0.00    -0.440 OA
ATOM      4  C   UNL     1      -0.760   2.270 -21.751  0.00  0.00    +0.152 A 
ATOM      5  C   UNL     1      -1.168   2.640 -22.929  0.00  0.00    +0.092 A 
ATOM      6  C   UNL     1      -0.326   2.705 -23.917  0.00  0.00    +0.345 A 
ATOM      7  O   UNL     1       0.923   2.400 -23.728  0.00  0.00    -0.422 OA
ATOM      8  C   UNL     1       1.331   2.031 -22.551  0.00  0.00    +0.143 A 
ATOM      9  C   UNL     1       2.581   1.726 -22.361  0.00  0.00    +0.047 A 
ATOM     10  C   UNL     1       2.988   1.356 -21.183  0.00  0.00    +0.004 A 
ATOM     11  C   UNL     1       2.147   1.291 -20.195  0.00  0.00    +0.001 A 
ATOM     12  C   UNL     1       0.897   1.596 -20.385  0.00  0.00    +0.015 A 
ATOM     13  O   UNL     1      -0.734   3.075 -25.096  0.00  0.00    -0.245 OA
ATOM     14  C   UNL     1       0.489   1.966 -21.562  0.00  0.00    +0.060 A 
ATOM     15  C   UNL     1      -2.417   2.945 -23.118  0.00  0.00    +0.105 C 
ENDROOT
BRANCH  15  16
ATOM     16  C   UNL     1      -2.825   3.314 -24.296  0.00  0.00    -0.034 A 
ATOM     17  C   UNL     1      -2.916   4.579 -24.586  0.00  0.00    +0.008 A 
ATOM     18  C   UNL     1      -3.323   4.947 -25.763  0.00  0.00    +0.046 A 
ATOM     19  C   UNL     1      -3.640   4.052 -26.652  0.00  0.00    +0.117 A 
ATOM     20  C   UNL     1      -3.549   2.788 -26.362  0.00  0.00    +0.046 A 
ATOM     21  C   UNL     1      -3.142   2.419 -25.184  0.00  0.00    +0.008 A 
BRANCH  19  22
ATOM     22  O   UNL     1      -4.048   4.422 -27.830  0.00  0.00    -0.507 OA
ATOM     23  H   UNL     1      -3.424   4.607 -28.504  0.00  0.00    +0.292 HD
ENDBRANCH  19  22
ENDBRANCH  15  16
BRANCH   2  24
ATOM     24  N   UNL     1      -3.693   2.445 -19.964  0.00  0.00    -0.328 N 
ATOM     25  H   UNL     1      -3.369   2.261 -19.052  0.00  0.00    +0.145 HD
ATOM     26  H   UNL     1      -4.655   2.580 -20.125  0.00  0.00    +0.145 HD
ENDBRANCH   2  24
BRANCH   1  28
ATOM     27  N   UNL     1      -5.758   3.488 -22.508  0.00  0.00    -0.191 NA
ATOM     28  C   UNL     1      -4.508   3.184 -22.319  0.00  0.00    +0.101 C 
ENDBRANCH   1  28
TORSDOF 4
ENDMDL
MODEL 7
REMARK VINA RESULT:    -7.250      2.785      6.587
REMARK INTER + INTRA:          -6.239
REMARK INTER:                  -8.527
REMARK INTRA:                   2.289
REMARK UNBOUND:                 2.283
REMARK  Name = ZINC000000323340
REMARK  4 active torsions:
REMARK  status: ('A' for Active; 'I' for Inactive)
REMARK    1  A    between atoms: C_2  and  C_3
REMARK    2  A    between atoms: C_4  and  N_5
REMARK    3  A    between atoms: C_18  and  C_19
REMARK    4  A    between atoms: C_22  and  O_23
REMARK                            x       y       z     vdW  Elec       q    Type
REMARK                         _______ _______ _______ _____ _____    ______ ____
ROOT
ATOM      1  C   UNL     1      -0.829   2.180 -21.894  0.00  0.00    +0.098 C 
ATOM      2  C   UNL     1       0.075   1.715 -21.085  0.00  0.00    +0.199 C 
ATOM      3  O   UNL     1       1.336   1.872 -21.360  0.00  0.00    -0.440 OA
ATOM      4  C   UNL     1       1.692   2.494 -22.445  0.00  0.00    +0.152 A 
ATOM      5  C   UNL     1       0.788   2.959 -23.254  0.00  0.00    +0.092 A 
ATOM      6  C   UNL     1       1.144   3.581 -24.338  0.00  0.00    +0.345 A 
ATOM      7  O   UNL     1       2.404   3.738 -24.614  0.00  0.00    -0.422 OA
ATOM      8  C   UNL     1       3.309   3.273 -23.804  0.00  0.00    +0.143 A 
ATOM      9  C   UNL     1       4.570   3.429 -24.079  0.00  0.00    +0.047 A 
ATOM     10  C   UNL     1       5.475   2.964 -23.270  0.00  0.00    +0.004 A 
ATOM     11  C   UNL     1       5.119   2.342 -22.186  0.00  0.00    +0.001 A 
ATOM     12  C   UNL     1       3.857   2.185 -21.911  0.00  0.00    +0.015 A 
ATOM     13  O   UNL     1       0.238   4.047 -25.148  0.00  0.00    -0.245 OA
ATOM     14  C   UNL     1       2.953   2.651 -22.720  0.00  0.00    +0.060 A 
ATOM     15  C   UNL     1      -0.473   2.802 -22.979  0.00  0.00    +0.105 C 
ENDROOT
BRANCH  15  16
ATOM     16  C   UNL     1      -1.378   3.268 -23.788  0.00  0.00    -0.034 A 
ATOM     17  C   UNL     1      -1.811   4.485 -23.648  0.00  0.00    +0.008 A 
ATOM     18  C   UNL     1      -2.715   4.950 -24.458  0.00  0.00    +0.046 A 
ATOM     19  C   UNL     1      -3.187   4.197 -25.407  0.00  0.00    +0.117 A 
ATOM     20  C   UNL     1      -2.754   2.979 -25.547  0.00  0.00    +0.046 A 
ATOM     21  C   UNL     1      -1.849   2.514 -24.737  0.00  0.00    +0.008 A 
BRANCH  19  22
ATOM     22  O   UNL     1      -4.092   4.662 -26.217  0.00  0.00    -0.507 OA
ATOM     23  H   UNL     1      -4.994   4.445 -26.086  0.00  0.00    +0.292 HD
ENDBRANCH  19  22
ENDBRANCH  15  16
BRANCH   2  24
ATOM     24  N   UNL     1      -0.281   1.093 -20.000  0.00  0.00    -0.328 N 
ATOM     25  H   UNL     1       0.304   1.111 -19.208  0.00  0.00    +0.145 HD
ATOM     26  H   UNL     1      -1.134   0.604 -19.970  0.00  0.00    +0.145 HD
ENDBRANCH   2  24
BRANCH   1  28
ATOM     27  N   UNL     1      -3.351   1.866 -21.344  0.00  0.00    -0.191 NA
ATOM     28  C   UNL     1      -2.090   2.023 -21.619  0.00  0.00    +0.101 C 
ENDBRANCH   1  28
TORSDOF 4
ENDMDL
MODEL 8
REMARK VINA RESULT:    -7.154      2.536      6.521
REMARK INTER + INTRA:          -6.126
REMARK INTER:                  -8.409
REMARK INTRA:                   2.283
REMARK UNBOUND:                 2.283
REMARK  Name = ZINC000000323340
REMARK  4 active torsions:
REMARK  status: ('A' for Active; 'I' for Inactive)
REMARK    1  A    between atoms: C_2  and  C_3
REMARK    2  A    between atoms: C_4  and  N_5
REMARK    3  A    between atoms: C_18  and  C_19
REMARK    4  A    between atoms: C_22  and  O_23
REMARK                            x       y       z     vdW  Elec       q    Type
REMARK                         _______ _______ _______ _____ _____    ______ ____
ROOT
ATOM      1  C   UNL     1       1.800   1.839 -22.129  0.00  0.00    +0.098 C 
ATOM      2  C   UNL     1       2.900   1.342 -21.647  0.00  0.00    +0.199 C 
ATOM      3  O   UNL     1       4.007   2.021 -21.718  0.00  0.00    -0.440 OA
ATOM      4  C   UNL     1       4.013   3.197 -22.271  0.00  0.00    +0.152 A 
ATOM      5  C   UNL     1       2.913   3.695 -22.753  0.00  0.00    +0.092 A 
ATOM      6  C   UNL     1       2.918   4.871 -23.306  0.00  0.00    +0.345 A 
ATOM      7  O   UNL     1       4.024   5.551 -23.377  0.00  0.00    -0.422 OA
ATOM      8  C   UNL     1       5.124   5.053 -22.895  0.00  0.00    +0.143 A 
ATOM      9  C   UNL     1       6.231   5.732 -22.966  0.00  0.00    +0.047 A 
ATOM     10  C   UNL     1       7.331   5.235 -22.484  0.00  0.00    +0.004 A 
ATOM     11  C   UNL     1       7.325   4.058 -21.931  0.00  0.00    +0.001 A 
ATOM     12  C   UNL     1       6.218   3.379 -21.860  0.00  0.00    +0.015 A 
ATOM     13  O   UNL     1       1.817   5.369 -23.788  0.00  0.00    -0.245 OA
ATOM     14  C   UNL     1       5.118   3.877 -22.342  0.00  0.00    +0.060 A 
ATOM     15  C   UNL     1       1.806   3.016 -22.682  0.00  0.00    +0.105 C 
ENDROOT
BRANCH  15  16
ATOM     16  C   UNL     1       0.706   3.513 -23.164  0.00  0.00    -0.034 A 
ATOM     17  C   UNL     1      -0.049   4.265 -22.419  0.00  0.00    +0.008 A 
ATOM     18  C   UNL     1      -1.148   4.762 -22.901  0.00  0.00    +0.046 A 
ATOM     19  C   UNL     1      -1.494   4.507 -24.129  0.00  0.00    +0.117 A 
ATOM     20  C   UNL     1      -0.740   3.755 -24.873  0.00  0.00    +0.046 A 
ATOM     21  C   UNL     1       0.361   3.258 -24.391  0.00  0.00    +0.008 A 
BRANCH  19  22
ATOM     22  O   UNL     1      -2.594   5.005 -24.610  0.00  0.00    -0.507 OA
ATOM     23  H   UNL     1      -3.423   4.694 -24.303  0.00  0.00    +0.292 HD
ENDBRANCH  19  22
ENDBRANCH  15  16
BRANCH   2  24
ATOM     24  N   UNL     1       2.894   0.165 -21.094  0.00  0.00    -0.328 N 
ATOM     25  H   UNL     1       2.925  -0.643 -21.657  0.00  0.00    +0.145 HD
ATOM     26  H   UNL     1       2.859   0.081 -20.115  0.00  0.00    +0.145 HD
ENDBRANCH   2  24
BRANCH   1  28
ATOM     27  N   UNL     1      -0.412   0.481 -21.988  0.00  0.00    -0.191 NA
ATOM     28  C   UNL     1       0.694   1.160 -22.058  0.00  0.00    +0.101 C 
ENDBRANCH   1  28
TORSDOF 4
ENDMDL
MODEL 9
REMARK VINA RESULT:    -7.008      2.532      3.900
REMARK INTER + INTRA:          -5.955
REMARK INTER:                  -8.279
REMARK INTRA:                   2.325
REMARK UNBOUND:                 2.283
REMARK  Name = ZINC000000323340
REMARK  4 active torsions:
REMARK  status: ('A' for Active; 'I' for Inactive)
REMARK    1  A    between atoms: C_2  and  C_3
REMARK    2  A    between atoms: C_4  and  N_5
REMARK    3  A    between atoms: C_18  and  C_19
REMARK    4  A    between atoms: C_22  and  O_23
REMARK                            x       y       z     vdW  Elec       q    Type
REMARK                         _______ _______ _______ _____ _____    ______ ____
ROOT
ATOM      1  C   UNL     1       3.865   1.536 -22.567  0.00  0.00    +0.098 C 
ATOM      2  C   UNL     1       2.729   0.906 -22.628  0.00  0.00    +0.199 C 
ATOM      3  O   UNL     1       1.629   1.568 -22.832  0.00  0.00    -0.440 OA
ATOM      4  C   UNL     1       1.664   2.860 -22.975  0.00  0.00    +0.152 A 
ATOM      5  C   UNL     1       2.800   3.490 -22.913  0.00  0.00    +0.092 A 
ATOM      6  C   UNL     1       2.836   4.782 -23.056  0.00  0.00    +0.345 A 
ATOM      7  O   UNL     1       1.736   5.444 -23.259  0.00  0.00    -0.422 OA
ATOM      8  C   UNL     1       0.600   4.814 -23.321  0.00  0.00    +0.143 A 
ATOM      9  C   UNL     1      -0.500   5.476 -23.525  0.00  0.00    +0.047 A 
ATOM     10  C   UNL     1      -1.636   4.846 -23.586  0.00  0.00    +0.004 A 
ATOM     11  C   UNL     1      -1.671   3.554 -23.444  0.00  0.00    +0.001 A 
ATOM     12  C   UNL     1      -0.571   2.892 -23.240  0.00  0.00    +0.015 A 
ATOM     13  O   UNL     1       3.972   5.411 -22.994  0.00  0.00    -0.245 OA
ATOM     14  C   UNL     1       0.565   3.522 -23.179  0.00  0.00    +0.060 A 
ATOM     15  C   UNL     1       3.901   2.828 -22.709  0.00  0.00    +0.105 C 
ENDROOT
BRANCH  15  16
ATOM     16  C   UNL     1       5.036   3.458 -22.648  0.00  0.00    -0.034 A 
ATOM     17  C   UNL     1       5.518   3.818 -21.496  0.00  0.00    +0.008 A 
ATOM     18  C   UNL     1       6.653   4.448 -21.435  0.00  0.00    +0.046 A 
ATOM     19  C   UNL     1       7.307   4.717 -22.526  0.00  0.00    +0.117 A 
ATOM     20  C   UNL     1       6.825   4.356 -23.679  0.00  0.00    +0.046 A 
ATOM     21  C   UNL     1       5.689   3.726 -23.740  0.00  0.00    +0.008 A 
BRANCH  19  22
ATOM     22  O   UNL     1       8.443   5.347 -22.465  0.00  0.00    -0.507 OA
ATOM     23  H   UNL     1       9.136   5.121 -23.053  0.00  0.00    +0.292 HD
ENDBRANCH  19  22
ENDBRANCH  15  16
BRANCH   2  24
ATOM     24  N   UNL     1       2.694  -0.385 -22.486  0.00  0.00    -0.328 N 
ATOM     25  H   UNL     1       1.874  -0.883 -22.711  0.00  0.00    +0.145 HD
ATOM     26  H   UNL     1       3.485  -0.866 -22.154  0.00  0.00    +0.145 HD
ENDBRANCH   2  24
BRANCH   1  28
ATOM     27  N   UNL     1       6.064   0.212 -22.159  0.00  0.00    -0.191 NA
ATOM     28  C   UNL     1       4.965   0.874 -22.363  0.00  0.00    +0.101 C 
ENDBRANCH   1  28
TORSDOF 4
ENDMDL
