MODEL 1
REMARK VINA RESULT:    -9.762      0.000      0.000
REMARK INTER + INTRA:          -9.762
REMARK INTER:                  -9.762
REMARK INTRA:                   0.000
REMARK UNBOUND:                 0.000
REMARK  Name = C=C1C(=O)O[C@@H]2[C@@H]1CC/C(C)=C\CC[C@]1(C)O[C@H]21                 ZINC000250647636
REMARK  2 active torsions:
REMARK  status: ('A' for Active; 'I' for Inactive)
REMARK    1  A    between atoms: C_10  and  C_11
REMARK    2  A    between atoms: C_15  and  C_16
REMARK                            x       y       z     vdW  Elec       q    Type
REMARK                         _______ _______ _______ _____ _____    ______ ____
ROOT
ATOM      1  C   UNL     1       0.183   2.626 -24.410  0.00  0.00    +0.020 C 
ATOM      2  C   UNL     1      -0.397   2.553 -23.249  0.00  0.00    +0.036 C 
ATOM      3  C   UNL     1       0.181   2.253 -22.124  0.00  0.00    +0.335 C 
ATOM      4  O   UNL     1      -0.721   2.282 -21.188  0.00  0.00    -0.455 OA
ATOM      5  C   UNL     1      -1.857   2.599 -21.735  0.00  0.00    +0.216 C 
ATOM      6  C   UNL     1      -3.048   2.757 -21.238  0.00  0.00    +0.192 C 
ATOM      7  O   UNL     1      -4.238   2.915 -20.741  0.00  0.00    -0.361 OA
ATOM      8  C   UNL     1      -4.038   3.083 -22.015  0.00  0.00    +0.097 C 
ATOM      9  C   UNL     1      -5.297   3.362 -22.176  0.00  0.00    +0.044 C 
ATOM     10  C   UNL     1      -3.837   3.250 -23.288  0.00  0.00    +0.041 C 
ATOM     11  C   UNL     1      -4.828   3.576 -24.065  0.00  0.00    +0.030 C 
ATOM     12  C   UNL     1      -4.627   3.744 -25.338  0.00  0.00    -0.028 C 
ATOM     13  C   UNL     1      -3.436   3.586 -25.835  0.00  0.00    -0.077 C 
ATOM     14  C   UNL     1      -3.236   3.753 -27.109  0.00  0.00    +0.039 C 
ATOM     15  C   UNL     1      -2.446   3.260 -25.059  0.00  0.00    +0.031 C 
ATOM     16  C   UNL     1      -2.646   3.092 -23.785  0.00  0.00    +0.016 C 
ATOM     17  O   UNL     1       1.440   1.974 -21.962  0.00  0.00    -0.245 OA
ATOM     18  C   UNL     1      -1.656   2.767 -23.009  0.00  0.00    +0.069 C 
ENDROOT
TORSDOF 0
ENDMDL
MODEL 2
REMARK VINA RESULT:    -9.752      1.932      3.503
REMARK INTER + INTRA:          -9.752
REMARK INTER:                  -9.752
REMARK INTRA:                   0.000
REMARK UNBOUND:                 0.000
REMARK  Name = C=C1C(=O)O[C@@H]2[C@@H]1CC/C(C)=C\CC[C@]1(C)O[C@H]21                 ZINC000250647636
REMARK  2 active torsions:
REMARK  status: ('A' for Active; 'I' for Inactive)
REMARK    1  A    between atoms: C_10  and  C_11
REMARK    2  A    between atoms: C_15  and  C_16
REMARK                            x       y       z     vdW  Elec       q    Type
REMARK                         _______ _______ _______ _____ _____    ______ ____
ROOT
ATOM      1  C   UNL     1      -0.251   2.268 -22.332  0.00  0.00    +0.020 C 
ATOM      2  C   UNL     1      -0.616   2.771 -23.474  0.00  0.00    +0.036 C 
ATOM      3  C   UNL     1       0.156   2.982 -24.499  0.00  0.00    +0.335 C 
ATOM      4  O   UNL     1      -0.568   3.492 -25.450  0.00  0.00    -0.455 OA
ATOM      5  C   UNL     1      -1.788   3.596 -25.014  0.00  0.00    +0.216 C 
ATOM      6  C   UNL     1      -2.876   4.038 -25.570  0.00  0.00    +0.192 C 
ATOM      7  O   UNL     1      -3.964   4.481 -26.127  0.00  0.00    -0.361 OA
ATOM      8  C   UNL     1      -3.994   4.036 -24.907  0.00  0.00    +0.097 C 
ATOM      9  C   UNL     1      -5.267   4.289 -24.845  0.00  0.00    +0.044 C 
ATOM     10  C   UNL     1      -4.023   3.590 -23.686  0.00  0.00    +0.041 C 
ATOM     11  C   UNL     1      -5.141   3.587 -23.021  0.00  0.00    +0.030 C 
ATOM     12  C   UNL     1      -5.170   3.141 -21.801  0.00  0.00    -0.028 C 
ATOM     13  C   UNL     1      -4.082   2.698 -21.244  0.00  0.00    -0.077 C 
ATOM     14  C   UNL     1      -4.112   2.253 -20.023  0.00  0.00    +0.039 C 
ATOM     15  C   UNL     1      -2.965   2.701 -21.908  0.00  0.00    +0.031 C 
ATOM     16  C   UNL     1      -2.935   3.147 -23.129  0.00  0.00    +0.016 C 
ATOM     17  O   UNL     1       1.430   2.728 -24.561  0.00  0.00    -0.245 OA
ATOM     18  C   UNL     1      -1.818   3.150 -23.793  0.00  0.00    +0.069 C 
ENDROOT
TORSDOF 0
ENDMDL
MODEL 3
REMARK VINA RESULT:    -8.814      1.048      1.586
REMARK INTER + INTRA:          -8.814
REMARK INTER:                  -8.814
REMARK INTRA:                   0.000
REMARK UNBOUND:                 0.000
REMARK  Name = C=C1C(=O)O[C@@H]2[C@@H]1CC/C(C)=C\CC[C@]1(C)O[C@H]21                 ZINC000250647636
REMARK  2 active torsions:
REMARK  status: ('A' for Active; 'I' for Inactive)
REMARK    1  A    between atoms: C_10  and  C_11
REMARK    2  A    between atoms: C_15  and  C_16
REMARK                            x       y       z     vdW  Elec       q    Type
REMARK                         _______ _______ _______ _____ _____    ______ ____
ROOT
ATOM      1  C   UNL     1       1.139   2.906 -25.481  0.00  0.00    +0.020 C 
ATOM      2  C   UNL     1       0.896   2.744 -24.214  0.00  0.00    +0.036 C 
ATOM      3  C   UNL     1       1.778   2.485 -23.295  0.00  0.00    +0.335 C 
ATOM      4  O   UNL     1       1.156   2.394 -22.156  0.00  0.00    -0.455 OA
ATOM      5  C   UNL     1      -0.110   2.597 -22.373  0.00  0.00    +0.216 C 
ATOM      6  C   UNL     1      -1.137   2.613 -21.576  0.00  0.00    +0.192 C 
ATOM      7  O   UNL     1      -2.164   2.630 -20.779  0.00  0.00    -0.361 OA
ATOM      8  C   UNL     1      -2.324   2.846 -22.051  0.00  0.00    +0.097 C 
ATOM      9  C   UNL     1      -3.602   2.990 -21.865  0.00  0.00    +0.044 C 
ATOM     10  C   UNL     1      -2.484   3.063 -23.322  0.00  0.00    +0.041 C 
ATOM     11  C   UNL     1      -3.672   3.295 -23.798  0.00  0.00    +0.030 C 
ATOM     12  C   UNL     1      -3.832   3.512 -25.069  0.00  0.00    -0.028 C 
ATOM     13  C   UNL     1      -2.805   3.496 -25.866  0.00  0.00    -0.077 C 
ATOM     14  C   UNL     1      -2.965   3.712 -27.138  0.00  0.00    +0.039 C 
ATOM     15  C   UNL     1      -1.618   3.263 -25.392  0.00  0.00    +0.031 C 
ATOM     16  C   UNL     1      -1.457   3.046 -24.119  0.00  0.00    +0.016 C 
ATOM     17  O   UNL     1       3.056   2.341 -23.480  0.00  0.00    -0.245 OA
ATOM     18  C   UNL     1      -0.270   2.814 -23.644  0.00  0.00    +0.069 C 
ENDROOT
TORSDOF 0
ENDMDL
MODEL 4
REMARK VINA RESULT:    -8.811      2.814      4.496
REMARK INTER + INTRA:          -8.811
REMARK INTER:                  -8.811
REMARK INTRA:                   0.000
REMARK UNBOUND:                 0.000
REMARK  Name = C=C1C(=O)O[C@@H]2[C@@H]1CC/C(C)=C\CC[C@]1(C)O[C@H]21                 ZINC000250647636
REMARK  2 active torsions:
REMARK  status: ('A' for Active; 'I' for Inactive)
REMARK    1  A    between atoms: C_10  and  C_11
REMARK    2  A    between atoms: C_15  and  C_16
REMARK                            x       y       z     vdW  Elec       q    Type
REMARK                         _______ _______ _______ _____ _____    ______ ____
ROOT
ATOM      1  C   UNL     1       0.923   1.452 -20.335  0.00  0.00    +0.020 C 
ATOM      2  C   UNL     1       1.538   1.493 -21.480  0.00  0.00    +0.036 C 
ATOM      3  C   UNL     1       2.691   0.957 -21.747  0.00  0.00    +0.335 C 
ATOM      4  O   UNL     1       2.974   1.210 -22.991  0.00  0.00    -0.455 OA
ATOM      5  C   UNL     1       1.994   1.903 -23.492  0.00  0.00    +0.216 C 
ATOM      6  C   UNL     1       1.796   2.397 -24.678  0.00  0.00    +0.192 C 
ATOM      7  O   UNL     1       1.598   2.891 -25.864  0.00  0.00    -0.361 OA
ATOM      8  C   UNL     1       0.711   3.066 -24.930  0.00  0.00    +0.097 C 
ATOM      9  C   UNL     1      -0.031   3.737 -25.760  0.00  0.00    +0.044 C 
ATOM     10  C   UNL     1      -0.176   3.240 -23.996  0.00  0.00    +0.041 C 
ATOM     11  C   UNL     1      -1.263   3.910 -24.248  0.00  0.00    +0.030 C 
ATOM     12  C   UNL     1      -2.150   4.085 -23.315  0.00  0.00    -0.028 C 
ATOM     13  C   UNL     1      -1.951   3.591 -22.129  0.00  0.00    -0.077 C 
ATOM     14  C   UNL     1      -2.839   3.766 -21.195  0.00  0.00    +0.039 C 
ATOM     15  C   UNL     1      -0.866   2.922 -21.876  0.00  0.00    +0.031 C 
ATOM     16  C   UNL     1       0.022   2.746 -22.810  0.00  0.00    +0.016 C 
ATOM     17  O   UNL     1       3.433   0.285 -20.917  0.00  0.00    -0.245 OA
ATOM     18  C   UNL     1       1.107   2.077 -22.558  0.00  0.00    +0.069 C 
ENDROOT
TORSDOF 0
ENDMDL
MODEL 5
REMARK VINA RESULT:    -8.644      1.425      4.369
REMARK INTER + INTRA:          -8.644
REMARK INTER:                  -8.644
REMARK INTRA:                   0.000
REMARK UNBOUND:                 0.000
REMARK  Name = C=C1C(=O)O[C@@H]2[C@@H]1CC/C(C)=C\CC[C@]1(C)O[C@H]21                 ZINC000250647636
REMARK  2 active torsions:
REMARK  status: ('A' for Active; 'I' for Inactive)
REMARK    1  A    between atoms: C_10  and  C_11
REMARK    2  A    between atoms: C_15  and  C_16
REMARK                            x       y       z     vdW  Elec       q    Type
REMARK                         _______ _______ _______ _____ _____    ______ ____
ROOT
ATOM      1  C   UNL     1      -2.991   4.157 -24.386  0.00  0.00    +0.020 C 
ATOM      2  C   UNL     1      -2.815   3.423 -23.327  0.00  0.00    +0.036 C 
ATOM      3  C   UNL     1      -3.738   3.064 -22.485  0.00  0.00    +0.335 C 
ATOM      4  O   UNL     1      -3.179   2.338 -21.562  0.00  0.00    -0.455 OA
ATOM      5  C   UNL     1      -1.911   2.248 -21.835  0.00  0.00    +0.216 C 
ATOM      6  C   UNL     1      -0.933   1.642 -21.230  0.00  0.00    +0.192 C 
ATOM      7  O   UNL     1       0.046   1.037 -20.626  0.00  0.00    -0.361 OA
ATOM      8  C   UNL     1       0.271   1.707 -21.717  0.00  0.00    +0.097 C 
ATOM      9  C   UNL     1       1.531   1.394 -21.649  0.00  0.00    +0.044 C 
ATOM     10  C   UNL     1       0.496   2.377 -22.808  0.00  0.00    +0.041 C 
ATOM     11  C   UNL     1       1.700   2.442 -23.295  0.00  0.00    +0.030 C 
ATOM     12  C   UNL     1       1.924   3.112 -24.386  0.00  0.00    -0.028 C 
ATOM     13  C   UNL     1       0.946   3.718 -24.990  0.00  0.00    -0.077 C 
ATOM     14  C   UNL     1       1.170   4.388 -26.081  0.00  0.00    +0.039 C 
ATOM     15  C   UNL     1      -0.258   3.653 -24.503  0.00  0.00    +0.031 C 
ATOM     16  C   UNL     1      -0.483   2.983 -23.412  0.00  0.00    +0.016 C 
ATOM     17  O   UNL     1      -4.998   3.377 -22.552  0.00  0.00    -0.245 OA
ATOM     18  C   UNL     1      -1.687   2.918 -22.925  0.00  0.00    +0.069 C 
ENDROOT
TORSDOF 0
ENDMDL
MODEL 6
REMARK VINA RESULT:    -8.112      2.920      5.751
REMARK INTER + INTRA:          -8.112
REMARK INTER:                  -8.112
REMARK INTRA:                   0.000
REMARK UNBOUND:                 0.000
REMARK  Name = C=C1C(=O)O[C@@H]2[C@@H]1CC/C(C)=C\CC[C@]1(C)O[C@H]21                 ZINC000250647636
REMARK  2 active torsions:
REMARK  status: ('A' for Active; 'I' for Inactive)
REMARK    1  A    between atoms: C_10  and  C_11
REMARK    2  A    between atoms: C_15  and  C_16
REMARK                            x       y       z     vdW  Elec       q    Type
REMARK                         _______ _______ _______ _____ _____    ______ ____
ROOT
ATOM      1  C   UNL     1       1.205   3.995 -25.542  0.00  0.00    +0.020 C 
ATOM      2  C   UNL     1       0.443   3.395 -24.676  0.00  0.00    +0.036 C 
ATOM      3  C   UNL     1      -0.845   3.247 -24.766  0.00  0.00    +0.335 C 
ATOM      4  O   UNL     1      -1.249   2.599 -23.714  0.00  0.00    -0.455 OA
ATOM      5  C   UNL     1      -0.210   2.347 -22.974  0.00  0.00    +0.216 C 
ATOM      6  C   UNL     1      -0.082   1.734 -21.835  0.00  0.00    +0.192 C 
ATOM      7  O   UNL     1       0.047   1.120 -20.696  0.00  0.00    -0.361 OA
ATOM      8  C   UNL     1       1.093   1.612 -21.291  0.00  0.00    +0.097 C 
ATOM      9  C   UNL     1       1.845   1.188 -20.320  0.00  0.00    +0.044 C 
ATOM     10  C   UNL     1       2.138   2.104 -21.886  0.00  0.00    +0.041 C 
ATOM     11  C   UNL     1       3.313   1.983 -21.342  0.00  0.00    +0.030 C 
ATOM     12  C   UNL     1       4.359   2.476 -21.937  0.00  0.00    -0.028 C 
ATOM     13  C   UNL     1       4.230   3.089 -23.076  0.00  0.00    -0.077 C 
ATOM     14  C   UNL     1       5.276   3.582 -23.671  0.00  0.00    +0.039 C 
ATOM     15  C   UNL     1       3.056   3.211 -23.620  0.00  0.00    +0.031 C 
ATOM     16  C   UNL     1       2.009   2.718 -23.025  0.00  0.00    +0.016 C 
ATOM     17  O   UNL     1      -1.597   3.671 -25.737  0.00  0.00    -0.245 OA
ATOM     18  C   UNL     1       0.835   2.840 -23.569  0.00  0.00    +0.069 C 
ENDROOT
TORSDOF 0
ENDMDL
MODEL 7
REMARK VINA RESULT:    -8.098      1.723      4.190
REMARK INTER + INTRA:          -8.098
REMARK INTER:                  -8.098
REMARK INTRA:                   0.000
REMARK UNBOUND:                 0.000
REMARK  Name = C=C1C(=O)O[C@@H]2[C@@H]1CC/C(C)=C\CC[C@]1(C)O[C@H]21                 ZINC000250647636
REMARK  2 active torsions:
REMARK  status: ('A' for Active; 'I' for Inactive)
REMARK    1  A    between atoms: C_10  and  C_11
REMARK    2  A    between atoms: C_15  and  C_16
REMARK                            x       y       z     vdW  Elec       q    Type
REMARK                         _______ _______ _______ _____ _____    ______ ____
ROOT
ATOM      1  C   UNL     1      -2.563   3.730 -26.439  0.00  0.00    +0.020 C 
ATOM      2  C   UNL     1      -3.144   3.591 -25.284  0.00  0.00    +0.036 C 
ATOM      3  C   UNL     1      -4.409   3.769 -25.040  0.00  0.00    +0.335 C 
ATOM      4  O   UNL     1      -4.610   3.537 -23.777  0.00  0.00    -0.455 OA
ATOM      5  C   UNL     1      -3.470   3.215 -23.241  0.00  0.00    +0.216 C 
ATOM      6  C   UNL     1      -3.140   2.896 -22.025  0.00  0.00    +0.192 C 
ATOM      7  O   UNL     1      -2.810   2.577 -20.808  0.00  0.00    -0.361 OA
ATOM      8  C   UNL     1      -1.904   2.611 -21.740  0.00  0.00    +0.097 C 
ATOM      9  C   UNL     1      -1.000   2.262 -20.874  0.00  0.00    +0.044 C 
ATOM     10  C   UNL     1      -0.999   2.644 -22.672  0.00  0.00    +0.041 C 
ATOM     11  C   UNL     1       0.238   2.358 -22.388  0.00  0.00    +0.030 C 
ATOM     12  C   UNL     1       1.143   2.391 -23.320  0.00  0.00    -0.028 C 
ATOM     13  C   UNL     1       0.813   2.710 -24.537  0.00  0.00    -0.077 C 
ATOM     14  C   UNL     1       1.718   2.743 -25.469  0.00  0.00    +0.039 C 
ATOM     15  C   UNL     1      -0.423   2.996 -24.821  0.00  0.00    +0.031 C 
ATOM     16  C   UNL     1      -1.329   2.963 -23.889  0.00  0.00    +0.016 C 
ATOM     17  O   UNL     1      -5.313   4.118 -25.906  0.00  0.00    -0.245 OA
ATOM     18  C   UNL     1      -2.565   3.249 -24.173  0.00  0.00    +0.069 C 
ENDROOT
TORSDOF 0
ENDMDL
MODEL 8
REMARK VINA RESULT:    -7.860      3.873      7.103
REMARK INTER + INTRA:          -7.860
REMARK INTER:                  -7.860
REMARK INTRA:                   0.000
REMARK UNBOUND:                 0.000
REMARK  Name = C=C1C(=O)O[C@@H]2[C@@H]1CC/C(C)=C\CC[C@]1(C)O[C@H]21                 ZINC000250647636
REMARK  2 active torsions:
REMARK  status: ('A' for Active; 'I' for Inactive)
REMARK    1  A    between atoms: C_10  and  C_11
REMARK    2  A    between atoms: C_15  and  C_16
REMARK                            x       y       z     vdW  Elec       q    Type
REMARK                         _______ _______ _______ _____ _____    ______ ____
ROOT
ATOM      1  C   UNL     1       1.622   5.102 -23.871  0.00  0.00    +0.020 C 
ATOM      2  C   UNL     1       1.375   3.877 -23.513  0.00  0.00    +0.036 C 
ATOM      3  C   UNL     1       0.227   3.273 -23.600  0.00  0.00    +0.335 C 
ATOM      4  O   UNL     1       0.375   2.064 -23.146  0.00  0.00    -0.455 OA
ATOM      5  C   UNL     1       1.614   1.921 -22.778  0.00  0.00    +0.216 C 
ATOM      6  C   UNL     1       2.259   0.915 -22.267  0.00  0.00    +0.192 C 
ATOM      7  O   UNL     1       2.904  -0.091 -21.755  0.00  0.00    -0.361 OA
ATOM      8  C   UNL     1       3.522   1.030 -21.982  0.00  0.00    +0.097 C 
ATOM      9  C   UNL     1       4.623   0.516 -21.522  0.00  0.00    +0.044 C 
ATOM     10  C   UNL     1       4.140   2.151 -22.209  0.00  0.00    +0.041 C 
ATOM     11  C   UNL     1       5.403   2.266 -21.924  0.00  0.00    +0.030 C 
ATOM     12  C   UNL     1       6.021   3.387 -22.151  0.00  0.00    -0.028 C 
ATOM     13  C   UNL     1       5.376   4.393 -22.663  0.00  0.00    -0.077 C 
ATOM     14  C   UNL     1       5.994   5.514 -22.890  0.00  0.00    +0.039 C 
ATOM     15  C   UNL     1       4.113   4.278 -22.948  0.00  0.00    +0.031 C 
ATOM     16  C   UNL     1       3.494   3.157 -22.721  0.00  0.00    +0.016 C 
ATOM     17  O   UNL     1      -0.874   3.787 -24.059  0.00  0.00    -0.245 OA
ATOM     18  C   UNL     1       2.232   3.042 -23.005  0.00  0.00    +0.069 C 
ENDROOT
TORSDOF 0
ENDMDL
MODEL 9
REMARK VINA RESULT:    -7.851      1.644      2.702
REMARK INTER + INTRA:          -7.851
REMARK INTER:                  -7.851
REMARK INTRA:                   0.000
REMARK UNBOUND:                 0.000
REMARK  Name = C=C1C(=O)O[C@@H]2[C@@H]1CC/C(C)=C\CC[C@]1(C)O[C@H]21                 ZINC000250647636
REMARK  2 active torsions:
REMARK  status: ('A' for Active; 'I' for Inactive)
REMARK    1  A    between atoms: C_10  and  C_11
REMARK    2  A    between atoms: C_15  and  C_16
REMARK                            x       y       z     vdW  Elec       q    Type
REMARK                         _______ _______ _______ _____ _____    ______ ____
ROOT
ATOM      1  C   UNL     1       2.739   2.074 -22.687  0.00  0.00    +0.020 C 
ATOM      2  C   UNL     1       1.701   1.837 -21.941  0.00  0.00    +0.036 C 
ATOM      3  C   UNL     1       1.713   1.258 -20.778  0.00  0.00    +0.335 C 
ATOM      4  O   UNL     1       0.489   1.200 -20.345  0.00  0.00    -0.455 OA
ATOM      5  C   UNL     1      -0.280   1.744 -21.242  0.00  0.00    +0.216 C 
ATOM      6  C   UNL     1      -1.565   1.932 -21.287  0.00  0.00    +0.192 C 
ATOM      7  O   UNL     1      -2.851   2.120 -21.332  0.00  0.00    -0.361 OA
ATOM      8  C   UNL     1      -2.101   2.514 -22.318  0.00  0.00    +0.097 C 
ATOM      9  C   UNL     1      -3.153   2.958 -22.940  0.00  0.00    +0.044 C 
ATOM     10  C   UNL     1      -1.352   2.907 -23.304  0.00  0.00    +0.041 C 
ATOM     11  C   UNL     1      -1.888   3.489 -24.337  0.00  0.00    +0.030 C 
ATOM     12  C   UNL     1      -1.138   3.883 -25.323  0.00  0.00    -0.028 C 
ATOM     13  C   UNL     1       0.148   3.695 -25.278  0.00  0.00    -0.077 C 
ATOM     14  C   UNL     1       0.897   4.088 -26.264  0.00  0.00    +0.039 C 
ATOM     15  C   UNL     1       0.684   3.113 -24.246  0.00  0.00    +0.031 C 
ATOM     16  C   UNL     1      -0.066   2.719 -23.259  0.00  0.00    +0.016 C 
ATOM     17  O   UNL     1       2.764   0.813 -20.156  0.00  0.00    -0.245 OA
ATOM     18  C   UNL     1       0.470   2.138 -22.228  0.00  0.00    +0.069 C 
ENDROOT
TORSDOF 0
ENDMDL
