MODEL 1
REMARK VINA RESULT:   -10.834      0.000      0.000
REMARK INTER + INTRA:         -11.564
REMARK INTER:                 -11.465
REMARK INTRA:                  -0.099
REMARK UNBOUND:                -0.096
REMARK  Name = ZINC000029477722
REMARK  4 active torsions:
REMARK  status: ('A' for Active; 'I' for Inactive)
REMARK    1  A    between atoms: C_1  and  O_2
REMARK    2  A    between atoms: O_2  and  C_3
REMARK    3  A    between atoms: N_12  and  C_13
REMARK    4  A    between atoms: C_17  and  C_18
REMARK                            x       y       z     vdW  Elec       q    Type
REMARK                         _______ _______ _______ _____ _____    ______ ____
ROOT
ATOM      1  C   UNL     1       0.131   3.883 -23.960  0.00  0.00    +0.120 A 
ATOM      2  C   UNL     1      -0.116   3.810 -25.202  0.00  0.00    +0.046 A 
ATOM      3  C   UNL     1      -1.318   3.672 -25.577  0.00  0.00    +0.008 A 
ATOM      4  C   UNL     1      -2.382   3.601 -24.564  0.00  0.00    -0.038 A 
ATOM      5  C   UNL     1      -2.100   3.669 -23.544  0.00  0.00    -0.033 A 
ATOM      6  C   UNL     1      -2.619   3.647 -22.747  0.00  0.00    +0.016 C 
ATOM      7  C   UNL     1      -1.536   3.709 -24.036  0.00  0.00    +0.063 C 
ATOM      8  C   UNL     1      -2.051   3.603 -25.413  0.00  0.00    +0.132 C 
ATOM      9  N   UNL     1      -3.207   3.477 -25.588  0.00  0.00    +0.236 N 
ATOM     10  H   UNL     1      -4.205   3.382 -25.399  0.00  0.00    +0.203 HD
ATOM     11  C   UNL     1      -4.241   3.417 -24.388  0.00  0.00    +0.073 C 
ATOM     12  C   UNL     1      -3.037   3.441 -26.978  0.00  0.00    +0.190 C 
ATOM     13  C   UNL     1      -2.294   3.727 -21.534  0.00  0.00    +0.086 C 
ATOM     14  C   UNL     1      -3.207   3.668 -20.615  0.00  0.00    +0.134 C 
ATOM     15  O   UNL     1      -2.871   3.750 -19.378  0.00  0.00    -0.297 OA
ATOM     16  C   UNL     1      -4.478   3.525 -20.932  0.00  0.00    +0.078 C 
ATOM     17  C   UNL     1      -4.858   3.439 -22.168  0.00  0.00    +0.002 C 
ATOM     18  C   UNL     1      -6.103   3.300 -22.460  0.00  0.00    +0.008 C 
ATOM     19  C   UNL     1      -3.998   3.492 -23.088  0.00  0.00    +0.052 C 
ATOM     20  C   UNL     1      -3.584   3.463 -24.948  0.00  0.00    +0.090 C 
ATOM     21  C   UNL     1      -0.849   3.814 -23.121  0.00  0.00    +0.050 A 
ENDROOT
BRANCH   1  23
ATOM     22  C   UNL     1       2.282   4.840 -23.372  0.00  0.00    +0.277 C 
ATOM     23  O   UNL     1       1.321   4.032 -23.247  0.00  0.00    -0.495 OA
ENDBRANCH   1  23
TORSDOF 1
ENDMDL
MODEL 2
REMARK VINA RESULT:   -10.188      2.128      4.717
REMARK INTER + INTRA:         -10.880
REMARK INTER:                 -10.738
REMARK INTRA:                  -0.142
REMARK UNBOUND:                -0.096
REMARK  Name = ZINC000029477722
REMARK  4 active torsions:
REMARK  status: ('A' for Active; 'I' for Inactive)
REMARK    1  A    between atoms: C_1  and  O_2
REMARK    2  A    between atoms: O_2  and  C_3
REMARK    3  A    between atoms: N_12  and  C_13
REMARK    4  A    between atoms: C_17  and  C_18
REMARK                            x       y       z     vdW  Elec       q    Type
REMARK                         _______ _______ _______ _____ _____    ______ ____
ROOT
ATOM      1  C   UNL     1      -3.646   3.844 -24.974  0.00  0.00    +0.120 A 
ATOM      2  C   UNL     1      -4.534   3.750 -24.074  0.00  0.00    +0.046 A 
ATOM      3  C   UNL     1      -4.202   3.307 -22.935  0.00  0.00    +0.008 A 
ATOM      4  C   UNL     1      -2.804   2.919 -22.695  0.00  0.00    -0.038 A 
ATOM      5  C   UNL     1      -2.116   3.025 -23.495  0.00  0.00    -0.033 A 
ATOM      6  C   UNL     1      -1.185   2.836 -23.552  0.00  0.00    +0.016 C 
ATOM      7  C   UNL     1      -2.821   3.231 -23.647  0.00  0.00    +0.063 C 
ATOM      8  C   UNL     1      -3.677   3.038 -22.464  0.00  0.00    +0.132 C 
ATOM      9  N   UNL     1      -3.205   2.613 -21.474  0.00  0.00    +0.236 N 
ATOM     10  H   UNL     1      -2.519   2.247 -20.814  0.00  0.00    +0.203 HD
ATOM     11  C   UNL     1      -1.669   2.236 -21.365  0.00  0.00    +0.073 C 
ATOM     12  C   UNL     1      -4.437   2.672 -20.810  0.00  0.00    +0.190 C 
ATOM     13  C   UNL     1      -0.363   2.958 -24.496  0.00  0.00    +0.086 C 
ATOM     14  C   UNL     1       0.879   2.625 -24.319  0.00  0.00    +0.134 C 
ATOM     15  O   UNL     1       1.715   2.752 -25.285  0.00  0.00    -0.297 OA
ATOM     16  C   UNL     1       1.294   2.157 -23.160  0.00  0.00    +0.078 C 
ATOM     17  C   UNL     1       0.482   2.015 -22.160  0.00  0.00    +0.002 C 
ATOM     18  C   UNL     1       0.905   1.556 -21.035  0.00  0.00    +0.008 C 
ATOM     19  C   UNL     1      -0.732   2.328 -22.295  0.00  0.00    +0.052 C 
ATOM     20  C   UNL     1      -2.479   2.476 -21.550  0.00  0.00    +0.090 C 
ATOM     21  C   UNL     1      -2.435   3.486 -24.700  0.00  0.00    +0.050 A 
ENDROOT
BRANCH   1  23
ATOM     22  C   UNL     1      -3.313   3.750 -27.375  0.00  0.00    +0.277 C 
ATOM     23  O   UNL     1      -3.693   4.283 -26.298  0.00  0.00    -0.495 OA
ENDBRANCH   1  23
TORSDOF 1
ENDMDL
MODEL 3
REMARK VINA RESULT:   -10.098      1.939      2.531
REMARK INTER + INTRA:         -10.785
REMARK INTER:                 -10.689
REMARK INTRA:                  -0.097
REMARK UNBOUND:                -0.096
REMARK  Name = ZINC000029477722
REMARK  4 active torsions:
REMARK  status: ('A' for Active; 'I' for Inactive)
REMARK    1  A    between atoms: C_1  and  O_2
REMARK    2  A    between atoms: O_2  and  C_3
REMARK    3  A    between atoms: N_12  and  C_13
REMARK    4  A    between atoms: C_17  and  C_18
REMARK                            x       y       z     vdW  Elec       q    Type
REMARK                         _______ _______ _______ _____ _____    ______ ____
ROOT
ATOM      1  C   UNL     1       0.764   1.928 -21.900  0.00  0.00    +0.120 A 
ATOM      2  C   UNL     1       1.420   2.280 -22.927  0.00  0.00    +0.046 A 
ATOM      3  C   UNL     1       0.803   2.832 -23.885  0.00  0.00    +0.008 A 
ATOM      4  C   UNL     1      -0.648   3.045 -23.776  0.00  0.00    -0.038 A 
ATOM      5  C   UNL     1      -1.131   2.725 -22.887  0.00  0.00    -0.033 A 
ATOM      6  C   UNL     1      -2.042   2.767 -22.618  0.00  0.00    +0.016 C 
ATOM      7  C   UNL     1      -0.392   2.603 -22.914  0.00  0.00    +0.063 C 
ATOM      8  C   UNL     1       0.162   3.089 -24.190  0.00  0.00    +0.132 C 
ATOM      9  N   UNL     1      -0.557   3.581 -24.980  0.00  0.00    +0.236 N 
ATOM     10  H   UNL     1      -1.406   3.937 -25.419  0.00  0.00    +0.203 HD
ATOM     11  C   UNL     1      -2.112   3.744 -24.720  0.00  0.00    +0.073 C 
ATOM     12  C   UNL     1       0.501   3.799 -25.872  0.00  0.00    +0.190 C 
ATOM     13  C   UNL     1      -2.623   2.390 -21.568  0.00  0.00    +0.086 C 
ATOM     14  C   UNL     1      -3.902   2.563 -21.438  0.00  0.00    +0.134 C 
ATOM     15  O   UNL     1      -4.491   2.177 -20.364  0.00  0.00    -0.297 OA
ATOM     16  C   UNL     1      -4.608   3.130 -22.394  0.00  0.00    +0.078 C 
ATOM     17  C   UNL     1      -4.051   3.534 -23.494  0.00  0.00    +0.002 C 
ATOM     18  C   UNL     1      -4.756   4.086 -24.417  0.00  0.00    +0.008 C 
ATOM     19  C   UNL     1      -2.810   3.382 -23.654  0.00  0.00    +0.052 C 
ATOM     20  C   UNL     1      -1.260   3.600 -24.741  0.00  0.00    +0.090 C 
ATOM     21  C   UNL     1      -0.510   2.144 -21.867  0.00  0.00    +0.050 A 
ENDROOT
BRANCH   1  23
ATOM     22  C   UNL     1       2.270   1.165 -20.159  0.00  0.00    +0.277 C 
ATOM     23  O   UNL     1       1.145   1.312 -20.708  0.00  0.00    -0.495 OA
ENDBRANCH   1  23
TORSDOF 1
ENDMDL
MODEL 4
REMARK VINA RESULT:    -9.752      2.052      3.761
REMARK INTER + INTRA:         -10.419
REMARK INTER:                 -10.276
REMARK INTRA:                  -0.142
REMARK UNBOUND:                -0.096
REMARK  Name = ZINC000029477722
REMARK  4 active torsions:
REMARK  status: ('A' for Active; 'I' for Inactive)
REMARK    1  A    between atoms: C_1  and  O_2
REMARK    2  A    between atoms: O_2  and  C_3
REMARK    3  A    between atoms: N_12  and  C_13
REMARK    4  A    between atoms: C_17  and  C_18
REMARK                            x       y       z     vdW  Elec       q    Type
REMARK                         _______ _______ _______ _____ _____    ______ ____
ROOT
ATOM      1  C   UNL     1      -0.019   2.208 -23.000  0.00  0.00    +0.120 A 
ATOM      2  C   UNL     1      -0.268   2.256 -21.758  0.00  0.00    +0.046 A 
ATOM      3  C   UNL     1      -1.407   2.659 -21.380  0.00  0.00    +0.008 A 
ATOM      4  C   UNL     1      -2.400   3.055 -22.391  0.00  0.00    -0.038 A 
ATOM      5  C   UNL     1      -2.121   2.989 -23.412  0.00  0.00    -0.033 A 
ATOM      6  C   UNL     1      -2.601   3.191 -24.208  0.00  0.00    +0.016 C 
ATOM      7  C   UNL     1      -1.595   2.780 -22.920  0.00  0.00    +0.063 C 
ATOM      8  C   UNL     1      -2.098   2.917 -21.543  0.00  0.00    +0.132 C 
ATOM      9  N   UNL     1      -3.192   3.310 -21.365  0.00  0.00    +0.236 N 
ATOM     10  H   UNL     1      -4.132   3.659 -21.551  0.00  0.00    +0.203 HD
ATOM     11  C   UNL     1      -4.153   3.701 -22.563  0.00  0.00    +0.073 C 
ATOM     12  C   UNL     1      -3.048   3.210 -19.975  0.00  0.00    +0.190 C 
ATOM     13  C   UNL     1      -2.279   3.114 -25.422  0.00  0.00    +0.086 C 
ATOM     14  C   UNL     1      -3.130   3.456 -26.339  0.00  0.00    +0.134 C 
ATOM     15  O   UNL     1      -2.797   3.377 -27.577  0.00  0.00    -0.297 OA
ATOM     16  C   UNL     1      -4.333   3.884 -26.019  0.00  0.00    +0.078 C 
ATOM     17  C   UNL     1      -4.708   3.979 -24.782  0.00  0.00    +0.002 C 
ATOM     18  C   UNL     1      -5.888   4.399 -24.487  0.00  0.00    +0.008 C 
ATOM     19  C   UNL     1      -3.907   3.656 -23.863  0.00  0.00    +0.052 C 
ATOM     20  C   UNL     1      -3.540   3.458 -22.004  0.00  0.00    +0.090 C 
ATOM     21  C   UNL     1      -0.934   2.570 -23.838  0.00  0.00    +0.050 A 
ENDROOT
BRANCH   1  23
ATOM     22  C   UNL     1       1.769   2.389 -24.631  0.00  0.00    +0.277 C 
ATOM     23  O   UNL     1       1.114   1.819 -23.717  0.00  0.00    -0.495 OA
ENDBRANCH   1  23
TORSDOF 1
ENDMDL
MODEL 5
REMARK VINA RESULT:    -9.688      1.628      4.213
REMARK INTER + INTRA:         -10.351
REMARK INTER:                 -10.252
REMARK INTRA:                  -0.099
REMARK UNBOUND:                -0.096
REMARK  Name = ZINC000029477722
REMARK  4 active torsions:
REMARK  status: ('A' for Active; 'I' for Inactive)
REMARK    1  A    between atoms: C_1  and  O_2
REMARK    2  A    between atoms: O_2  and  C_3
REMARK    3  A    between atoms: N_12  and  C_13
REMARK    4  A    between atoms: C_17  and  C_18
REMARK                            x       y       z     vdW  Elec       q    Type
REMARK                         _______ _______ _______ _____ _____    ______ ____
ROOT
ATOM      1  C   UNL     1      -4.677   3.381 -22.946  0.00  0.00    +0.120 A 
ATOM      2  C   UNL     1      -5.024   3.753 -24.107  0.00  0.00    +0.046 A 
ATOM      3  C   UNL     1      -4.147   3.801 -25.019  0.00  0.00    +0.008 A 
ATOM      4  C   UNL     1      -2.761   3.426 -24.703  0.00  0.00    -0.038 A 
ATOM      5  C   UNL     1      -2.543   3.125 -23.709  0.00  0.00    -0.033 A 
ATOM      6  C   UNL     1      -1.730   2.847 -23.301  0.00  0.00    +0.016 C 
ATOM      7  C   UNL     1      -3.258   3.310 -23.840  0.00  0.00    +0.063 C 
ATOM      8  C   UNL     1      -3.434   3.708 -25.248  0.00  0.00    +0.132 C 
ATOM      9  N   UNL     1      -2.506   3.696 -25.970  0.00  0.00    +0.236 N 
ATOM     10  H   UNL     1      -1.551   3.581 -26.310  0.00  0.00    +0.203 HD
ATOM     11  C   UNL     1      -1.061   3.265 -25.482  0.00  0.00    +0.073 C 
ATOM     12  C   UNL     1      -3.285   4.138 -27.048  0.00  0.00    +0.190 C 
ATOM     13  C   UNL     1      -1.464   2.489 -22.125  0.00  0.00    +0.086 C 
ATOM     14  C   UNL     1      -0.251   2.152 -21.811  0.00  0.00    +0.134 C 
ATOM     15  O   UNL     1       0.017   1.787 -20.609  0.00  0.00    -0.297 OA
ATOM     16  C   UNL     1       0.712   2.178 -22.709  0.00  0.00    +0.078 C 
ATOM     17  C   UNL     1       0.483   2.540 -23.933  0.00  0.00    +0.002 C 
ATOM     18  C   UNL     1       1.435   2.559 -24.797  0.00  0.00    +0.008 C 
ATOM     19  C   UNL     1      -0.684   2.875 -24.274  0.00  0.00    +0.052 C 
ATOM     20  C   UNL     1      -1.887   3.476 -25.623  0.00  0.00    +0.090 C 
ATOM     21  C   UNL     1      -3.442   3.065 -22.732  0.00  0.00    +0.050 A 
ENDROOT
BRANCH   1  23
ATOM     22  C   UNL     1      -6.464   2.623 -21.491  0.00  0.00    +0.277 C 
ATOM     23  O   UNL     1      -5.390   3.228 -21.756  0.00  0.00    -0.495 OA
ENDBRANCH   1  23
TORSDOF 1
ENDMDL
MODEL 6
REMARK VINA RESULT:    -9.455      1.972      3.443
REMARK INTER + INTRA:         -10.104
REMARK INTER:                  -9.941
REMARK INTRA:                  -0.163
REMARK UNBOUND:                -0.096
REMARK  Name = ZINC000029477722
REMARK  4 active torsions:
REMARK  status: ('A' for Active; 'I' for Inactive)
REMARK    1  A    between atoms: C_1  and  O_2
REMARK    2  A    between atoms: O_2  and  C_3
REMARK    3  A    between atoms: N_12  and  C_13
REMARK    4  A    between atoms: C_17  and  C_18
REMARK                            x       y       z     vdW  Elec       q    Type
REMARK                         _______ _______ _______ _____ _____    ______ ____
ROOT
ATOM      1  C   UNL     1      -1.856   3.419 -25.961  0.00  0.00    +0.120 A 
ATOM      2  C   UNL     1      -0.610   3.372 -25.732  0.00  0.00    +0.046 A 
ATOM      3  C   UNL     1      -0.212   3.343 -24.531  0.00  0.00    +0.008 A 
ATOM      4  C   UNL     1      -1.203   3.363 -23.445  0.00  0.00    -0.038 A 
ATOM      5  C   UNL     1      -2.229   3.402 -23.711  0.00  0.00    -0.033 A 
ATOM      6  C   UNL     1      -3.016   3.423 -23.177  0.00  0.00    +0.016 C 
ATOM      7  C   UNL     1      -1.747   3.393 -24.286  0.00  0.00    +0.063 C 
ATOM      8  C   UNL     1      -0.361   3.338 -23.791  0.00  0.00    +0.132 C 
ATOM      9  N   UNL     1      -0.164   3.316 -22.632  0.00  0.00    +0.236 N 
ATOM     10  H   UNL     1      -0.332   3.308 -21.626  0.00  0.00    +0.203 HD
ATOM     11  C   UNL     1      -1.343   3.343 -21.574  0.00  0.00    +0.073 C 
ATOM     12  C   UNL     1       1.223   3.270 -22.825  0.00  0.00    +0.190 C 
ATOM     13  C   UNL     1      -4.235   3.470 -23.485  0.00  0.00    +0.086 C 
ATOM     14  C   UNL     1      -5.137   3.489 -22.552  0.00  0.00    +0.134 C 
ATOM     15  O   UNL     1      -6.380   3.537 -22.871  0.00  0.00    -0.297 OA
ATOM     16  C   UNL     1      -4.795   3.460 -21.281  0.00  0.00    +0.078 C 
ATOM     17  C   UNL     1      -3.551   3.412 -20.918  0.00  0.00    +0.002 C 
ATOM     18  C   UNL     1      -3.235   3.384 -19.672  0.00  0.00    +0.008 C 
ATOM     19  C   UNL     1      -2.647   3.392 -21.797  0.00  0.00    +0.052 C 
ATOM     20  C   UNL     1      -0.796   3.333 -22.243  0.00  0.00    +0.090 C 
ATOM     21  C   UNL     1      -2.676   3.435 -24.962  0.00  0.00    +0.050 A 
ENDROOT
BRANCH   1  23
ATOM     22  C   UNL     1      -3.834   3.499 -27.363  0.00  0.00    +0.277 C 
ATOM     23  O   UNL     1      -2.593   3.461 -27.145  0.00  0.00    -0.495 OA
ENDBRANCH   1  23
TORSDOF 1
ENDMDL
MODEL 7
REMARK VINA RESULT:    -9.153      2.249      3.301
REMARK INTER + INTRA:          -9.784
REMARK INTER:                  -9.686
REMARK INTRA:                  -0.098
REMARK UNBOUND:                -0.096
REMARK  Name = ZINC000029477722
REMARK  4 active torsions:
REMARK  status: ('A' for Active; 'I' for Inactive)
REMARK    1  A    between atoms: C_1  and  O_2
REMARK    2  A    between atoms: O_2  and  C_3
REMARK    3  A    between atoms: N_12  and  C_13
REMARK    4  A    between atoms: C_17  and  C_18
REMARK                            x       y       z     vdW  Elec       q    Type
REMARK                         _______ _______ _______ _____ _____    ______ ____
ROOT
ATOM      1  C   UNL     1       0.083   3.322 -24.457  0.00  0.00    +0.120 A 
ATOM      2  C   UNL     1       0.689   2.717 -23.522  0.00  0.00    +0.046 A 
ATOM      3  C   UNL     1       0.023   2.319 -22.521  0.00  0.00    +0.008 A 
ATOM      4  C   UNL     1      -1.425   2.570 -22.477  0.00  0.00    -0.038 A 
ATOM      5  C   UNL     1      -1.865   3.082 -23.295  0.00  0.00    -0.033 A 
ATOM      6  C   UNL     1      -2.765   3.341 -23.464  0.00  0.00    +0.016 C 
ATOM      7  C   UNL     1      -1.125   2.969 -23.346  0.00  0.00    +0.063 C 
ATOM      8  C   UNL     1      -0.634   2.253 -22.156  0.00  0.00    +0.132 C 
ATOM      9  N   UNL     1      -1.394   1.953 -21.310  0.00  0.00    +0.236 N 
ATOM     10  H   UNL     1      -2.266   1.847 -20.791  0.00  0.00    +0.203 HD
ATOM     11  C   UNL     1      -2.939   2.295 -21.402  0.00  0.00    +0.073 C 
ATOM     12  C   UNL     1      -0.378   1.362 -20.548  0.00  0.00    +0.190 C 
ATOM     13  C   UNL     1      -3.294   3.948 -24.430  0.00  0.00    +0.086 C 
ATOM     14  C   UNL     1      -4.569   4.186 -24.424  0.00  0.00    +0.134 C 
ATOM     15  O   UNL     1      -5.106   4.806 -25.413  0.00  0.00    -0.297 OA
ATOM     16  C   UNL     1      -5.324   3.801 -23.415  0.00  0.00    +0.078 C 
ATOM     17  C   UNL     1      -4.821   3.173 -22.399  0.00  0.00    +0.002 C 
ATOM     18  C   UNL     1      -5.573   2.805 -21.422  0.00  0.00    +0.008 C 
ATOM     19  C   UNL     1      -3.585   2.924 -22.371  0.00  0.00    +0.052 C 
ATOM     20  C   UNL     1      -2.086   2.168 -21.470  0.00  0.00    +0.090 C 
ATOM     21  C   UNL     1      -1.192   3.511 -24.358  0.00  0.00    +0.050 A 
ENDROOT
BRANCH   1  23
ATOM     22  C   UNL     1       1.557   4.528 -25.959  0.00  0.00    +0.277 C 
ATOM     23  O   UNL     1       0.523   3.869 -25.662  0.00  0.00    -0.495 OA
ENDBRANCH   1  23
TORSDOF 1
ENDMDL
MODEL 8
REMARK VINA RESULT:    -9.121      2.157      4.736
REMARK INTER + INTRA:          -9.751
REMARK INTER:                  -9.654
REMARK INTRA:                  -0.096
REMARK UNBOUND:                -0.096
REMARK  Name = ZINC000029477722
REMARK  4 active torsions:
REMARK  status: ('A' for Active; 'I' for Inactive)
REMARK    1  A    between atoms: C_1  and  O_2
REMARK    2  A    between atoms: O_2  and  C_3
REMARK    3  A    between atoms: N_12  and  C_13
REMARK    4  A    between atoms: C_17  and  C_18
REMARK                            x       y       z     vdW  Elec       q    Type
REMARK                         _______ _______ _______ _____ _____    ______ ____
ROOT
ATOM      1  C   UNL     1      -2.897   2.567 -22.090  0.00  0.00    +0.120 A 
ATOM      2  C   UNL     1      -3.272   2.998 -23.222  0.00  0.00    +0.046 A 
ATOM      3  C   UNL     1      -2.401   3.188 -24.121  0.00  0.00    +0.008 A 
ATOM      4  C   UNL     1      -0.989   2.904 -23.825  0.00  0.00    -0.038 A 
ATOM      5  C   UNL     1      -0.749   2.546 -22.856  0.00  0.00    -0.033 A 
ATOM      6  C   UNL     1       0.084   2.305 -22.464  0.00  0.00    +0.016 C 
ATOM      7  C   UNL     1      -1.476   2.681 -22.977  0.00  0.00    +0.063 C 
ATOM      8  C   UNL     1      -1.682   3.172 -24.351  0.00  0.00    +0.132 C 
ATOM      9  N   UNL     1      -0.756   3.292 -25.065  0.00  0.00    +0.236 N 
ATOM     10  H   UNL     1       0.206   3.282 -25.406  0.00  0.00    +0.203 HD
ATOM     11  C   UNL     1       0.719   2.944 -24.601  0.00  0.00    +0.073 C 
ATOM     12  C   UNL     1      -1.567   3.751 -26.112  0.00  0.00    +0.190 C 
ATOM     13  C   UNL     1       0.378   1.880 -21.317  0.00  0.00    +0.086 C 
ATOM     14  C   UNL     1       1.614   1.619 -21.021  0.00  0.00    +0.134 C 
ATOM     15  O   UNL     1       1.910   1.185 -19.849  0.00  0.00    -0.297 OA
ATOM     16  C   UNL     1       2.573   1.794 -21.907  0.00  0.00    +0.078 C 
ATOM     17  C   UNL     1       2.316   2.230 -23.101  0.00  0.00    +0.002 C 
ATOM     18  C   UNL     1       3.264   2.394 -23.954  0.00  0.00    +0.008 C 
ATOM     19  C   UNL     1       1.126   2.494 -23.424  0.00  0.00    +0.052 C 
ATOM     20  C   UNL     1      -0.122   3.097 -24.732  0.00  0.00    +0.090 C 
ATOM     21  C   UNL     1      -1.640   2.337 -21.893  0.00  0.00    +0.050 A 
ENDROOT
BRANCH   1  23
ATOM     22  C   UNL     1      -4.830   2.233 -20.663  0.00  0.00    +0.277 C 
ATOM     23  O   UNL     1      -3.596   2.263 -20.922  0.00  0.00    -0.495 OA
ENDBRANCH   1  23
TORSDOF 1
ENDMDL
MODEL 9
REMARK VINA RESULT:    -8.730      3.968      6.536
REMARK INTER + INTRA:          -9.337
REMARK INTER:                  -9.240
REMARK INTRA:                  -0.096
REMARK UNBOUND:                -0.096
REMARK  Name = ZINC000029477722
REMARK  4 active torsions:
REMARK  status: ('A' for Active; 'I' for Inactive)
REMARK    1  A    between atoms: C_1  and  O_2
REMARK    2  A    between atoms: O_2  and  C_3
REMARK    3  A    between atoms: N_12  and  C_13
REMARK    4  A    between atoms: C_17  and  C_18
REMARK                            x       y       z     vdW  Elec       q    Type
REMARK                         _______ _______ _______ _____ _____    ______ ____
ROOT
ATOM      1  C   UNL     1       5.549   3.709 -22.873  0.00  0.00    +0.120 A 
ATOM      2  C   UNL     1       6.071   2.742 -22.239  0.00  0.00    +0.046 A 
ATOM      3  C   UNL     1       5.310   1.866 -21.731  0.00  0.00    +0.008 A 
ATOM      4  C   UNL     1       3.855   1.998 -21.892  0.00  0.00    -0.038 A 
ATOM      5  C   UNL     1       3.490   2.833 -22.435  0.00  0.00    -0.033 A 
ATOM      6  C   UNL     1       2.604   3.102 -22.652  0.00  0.00    +0.016 C 
ATOM      7  C   UNL     1       4.236   2.793 -22.370  0.00  0.00    +0.063 C 
ATOM      8  C   UNL     1       4.618   1.596 -21.600  0.00  0.00    +0.132 C 
ATOM      9  N   UNL     1       3.778   0.879 -21.196  0.00  0.00    +0.236 N 
ATOM     10  H   UNL     1       2.856   0.488 -21.001  0.00  0.00    +0.203 HD
ATOM     11  C   UNL     1       2.238   1.153 -21.451  0.00  0.00    +0.073 C 
ATOM     12  C   UNL     1       4.726   0.028 -20.611  0.00  0.00    +0.190 C 
ATOM     13  C   UNL     1       2.163   4.090 -23.294  0.00  0.00    +0.086 C 
ATOM     14  C   UNL     1       0.884   4.237 -23.456  0.00  0.00    +0.134 C 
ATOM     15  O   UNL     1       0.438   5.247 -24.113  0.00  0.00    -0.297 OA
ATOM     16  C   UNL     1       0.034   3.365 -22.955  0.00  0.00    +0.078 C 
ATOM     17  C   UNL     1       0.444   2.332 -22.286  0.00  0.00    +0.002 C 
ATOM     18  C   UNL     1      -0.400   1.490 -21.804  0.00  0.00    +0.008 C 
ATOM     19  C   UNL     1       1.680   2.157 -22.110  0.00  0.00    +0.052 C 
ATOM     20  C   UNL     1       3.099   1.115 -21.380  0.00  0.00    +0.090 C 
ATOM     21  C   UNL     1       4.263   3.767 -22.979  0.00  0.00    +0.050 A 
ENDROOT
BRANCH   1  23
ATOM     22  C   UNL     1       7.290   5.221 -23.626  0.00  0.00    +0.277 C 
ATOM     23  O   UNL     1       6.103   4.807 -23.531  0.00  0.00    -0.495 OA
ENDBRANCH   1  23
TORSDOF 1
ENDMDL
