MODEL 1
REMARK VINA RESULT:    -9.762      0.000      0.000
REMARK INTER + INTRA:         -10.047
REMARK INTER:                 -10.047
REMARK INTRA:                   0.000
REMARK UNBOUND:                 0.000
REMARK  Name = ZINC000004104918
REMARK  1 active torsions:
REMARK  status: ('A' for Active; 'I' for Inactive)
REMARK    1  A    between atoms: C_7  and  O_8
REMARK                            x       y       z     vdW  Elec       q    Type
REMARK                         _______ _______ _______ _____ _____    ______ ____
ROOT
ATOM      1  O   UNL     1      -3.194   2.520 -20.612  0.00  0.00    -0.287 OA
ATOM      2  C   UNL     1      -2.754   2.661 -21.827  0.00  0.00    +0.195 C 
ATOM      3  C   UNL     1      -1.518   2.375 -22.108  0.00  0.00    +0.037 A 
ATOM      4  C   UNL     1      -0.721   1.948 -21.173  0.00  0.00    +0.012 A 
ATOM      5  C   UNL     1       0.516   1.662 -21.455  0.00  0.00    +0.004 A 
ATOM      6  C   UNL     1       0.955   1.803 -22.669  0.00  0.00    +0.046 A 
ATOM      7  C   UNL     1       0.159   2.230 -23.603  0.00  0.00    +0.128 A 
ATOM      8  C   UNL     1      -1.078   2.516 -23.323  0.00  0.00    +0.074 A 
ATOM      9  C   UNL     1      -1.875   2.943 -24.257  0.00  0.00    +0.199 C 
ATOM     10  C   UNL     1      -3.111   3.229 -23.976  0.00  0.00    +0.047 A 
ATOM     11  C   UNL     1      -3.908   3.656 -24.911  0.00  0.00    +0.029 A 
ATOM     12  C   UNL     1      -5.144   3.942 -24.630  0.00  0.00    +0.016 A 
ATOM     13  C   UNL     1      -5.584   3.802 -23.415  0.00  0.00    +0.002 A 
ATOM     14  C   UNL     1      -4.788   3.375 -22.481  0.00  0.00    +0.012 A 
ATOM     15 BR   UNL     1      -3.467   3.797 -26.126  0.00  0.00    -0.050 Br
ATOM     16  O   UNL     1      -1.435   3.084 -25.472  0.00  0.00    -0.286 OA
ATOM     17  C   UNL     1      -3.551   3.088 -22.761  0.00  0.00    +0.034 A 
ENDROOT
BRANCH   7  18
ATOM     18  O   UNL     1       0.599   2.370 -24.819  0.00  0.00    -0.506 OA
ATOM     19  H   UNL     1       1.105   1.689 -25.215  0.00  0.00    +0.292 HD
ENDBRANCH   7  18
TORSDOF 1
ENDMDL
MODEL 2
REMARK VINA RESULT:    -9.337      1.230      4.258
REMARK INTER + INTRA:          -9.610
REMARK INTER:                  -9.610
REMARK INTRA:                   0.000
REMARK UNBOUND:                 0.000
REMARK  Name = ZINC000004104918
REMARK  1 active torsions:
REMARK  status: ('A' for Active; 'I' for Inactive)
REMARK    1  A    between atoms: C_7  and  O_8
REMARK                            x       y       z     vdW  Elec       q    Type
REMARK                         _______ _______ _______ _____ _____    ______ ____
ROOT
ATOM      1  O   UNL     1      -3.068   2.167 -20.703  0.00  0.00    -0.287 OA
ATOM      2  C   UNL     1      -2.646   2.551 -21.872  0.00  0.00    +0.195 C 
ATOM      3  C   UNL     1      -3.476   3.081 -22.720  0.00  0.00    +0.037 A 
ATOM      4  C   UNL     1      -4.728   3.229 -22.400  0.00  0.00    +0.012 A 
ATOM      5  C   UNL     1      -5.557   3.760 -23.249  0.00  0.00    +0.004 A 
ATOM      6  C   UNL     1      -5.136   4.143 -24.417  0.00  0.00    +0.046 A 
ATOM      7  C   UNL     1      -3.885   3.995 -24.737  0.00  0.00    +0.128 A 
ATOM      8  C   UNL     1      -3.055   3.464 -23.889  0.00  0.00    +0.074 A 
ATOM      9  C   UNL     1      -1.804   3.317 -24.209  0.00  0.00    +0.199 C 
ATOM     10  C   UNL     1      -0.974   2.787 -23.361  0.00  0.00    +0.047 A 
ATOM     11  C   UNL     1       0.278   2.639 -23.681  0.00  0.00    +0.029 A 
ATOM     12  C   UNL     1       1.108   2.109 -22.833  0.00  0.00    +0.016 A 
ATOM     13  C   UNL     1       0.686   1.725 -21.664  0.00  0.00    +0.002 A 
ATOM     14  C   UNL     1      -0.565   1.873 -21.344  0.00  0.00    +0.012 A 
ATOM     15 BR   UNL     1       0.699   3.023 -24.850  0.00  0.00    -0.050 Br
ATOM     16  O   UNL     1      -1.382   3.701 -25.378  0.00  0.00    -0.286 OA
ATOM     17  C   UNL     1      -1.395   2.403 -22.192  0.00  0.00    +0.034 A 
ENDROOT
BRANCH   7  18
ATOM     18  O   UNL     1      -3.464   4.379 -25.906  0.00  0.00    -0.506 OA
ATOM     19  H   UNL     1      -2.574   4.651 -26.017  0.00  0.00    +0.292 HD
ENDBRANCH   7  18
TORSDOF 1
ENDMDL
MODEL 3
REMARK VINA RESULT:    -9.292      1.742      3.018
REMARK INTER + INTRA:          -9.563
REMARK INTER:                  -9.563
REMARK INTRA:                   0.000
REMARK UNBOUND:                 0.000
REMARK  Name = ZINC000004104918
REMARK  1 active torsions:
REMARK  status: ('A' for Active; 'I' for Inactive)
REMARK    1  A    between atoms: C_7  and  O_8
REMARK                            x       y       z     vdW  Elec       q    Type
REMARK                         _______ _______ _______ _____ _____    ______ ____
ROOT
ATOM      1  O   UNL     1      -2.171   3.775 -25.990  0.00  0.00    -0.287 OA
ATOM      2  C   UNL     1      -2.124   3.400 -24.746  0.00  0.00    +0.195 C 
ATOM      3  C   UNL     1      -0.999   3.006 -24.229  0.00  0.00    +0.037 A 
ATOM      4  C   UNL     1       0.080   2.987 -24.954  0.00  0.00    +0.012 A 
ATOM      5  C   UNL     1       1.205   2.593 -24.435  0.00  0.00    +0.004 A 
ATOM      6  C   UNL     1       1.252   2.217 -23.193  0.00  0.00    +0.046 A 
ATOM      7  C   UNL     1       0.174   2.236 -22.467  0.00  0.00    +0.128 A 
ATOM      8  C   UNL     1      -0.952   2.630 -22.985  0.00  0.00    +0.074 A 
ATOM      9  C   UNL     1      -2.030   2.648 -22.259  0.00  0.00    +0.199 C 
ATOM     10  C   UNL     1      -3.155   3.043 -22.777  0.00  0.00    +0.047 A 
ATOM     11  C   UNL     1      -4.234   3.061 -22.051  0.00  0.00    +0.029 A 
ATOM     12  C   UNL     1      -5.359   3.455 -22.569  0.00  0.00    +0.016 A 
ATOM     13  C   UNL     1      -5.406   3.831 -23.813  0.00  0.00    +0.002 A 
ATOM     14  C   UNL     1      -4.328   3.813 -24.539  0.00  0.00    +0.012 A 
ATOM     15 BR   UNL     1      -4.187   2.685 -20.808  0.00  0.00    -0.050 Br
ATOM     16  O   UNL     1      -1.984   2.273 -21.016  0.00  0.00    -0.286 OA
ATOM     17  C   UNL     1      -3.202   3.418 -24.021  0.00  0.00    +0.034 A 
ENDROOT
BRANCH   7  18
ATOM     18  O   UNL     1       0.221   1.860 -21.223  0.00  0.00    -0.506 OA
ATOM     19  H   UNL     1      -0.573   1.693 -20.754  0.00  0.00    +0.292 HD
ENDBRANCH   7  18
TORSDOF 1
ENDMDL
MODEL 4
REMARK VINA RESULT:    -9.180      1.905      5.029
REMARK INTER + INTRA:          -9.448
REMARK INTER:                  -9.448
REMARK INTRA:                   0.000
REMARK UNBOUND:                 0.000
REMARK  Name = ZINC000004104918
REMARK  1 active torsions:
REMARK  status: ('A' for Active; 'I' for Inactive)
REMARK    1  A    between atoms: C_7  and  O_8
REMARK                            x       y       z     vdW  Elec       q    Type
REMARK                         _______ _______ _______ _____ _____    ______ ____
ROOT
ATOM      1  O   UNL     1      -2.333   3.944 -26.038  0.00  0.00    -0.287 OA
ATOM      2  C   UNL     1      -2.237   3.500 -24.820  0.00  0.00    +0.195 C 
ATOM      3  C   UNL     1      -3.287   3.469 -24.054  0.00  0.00    +0.037 A 
ATOM      4  C   UNL     1      -4.434   3.882 -24.507  0.00  0.00    +0.012 A 
ATOM      5  C   UNL     1      -5.484   3.851 -23.741  0.00  0.00    +0.004 A 
ATOM      6  C   UNL     1      -5.388   3.407 -22.524  0.00  0.00    +0.046 A 
ATOM      7  C   UNL     1      -4.242   2.994 -22.071  0.00  0.00    +0.128 A 
ATOM      8  C   UNL     1      -3.191   3.025 -22.836  0.00  0.00    +0.074 A 
ATOM      9  C   UNL     1      -2.044   2.611 -22.384  0.00  0.00    +0.199 C 
ATOM     10  C   UNL     1      -0.994   2.642 -23.149  0.00  0.00    +0.047 A 
ATOM     11  C   UNL     1       0.153   2.229 -22.696  0.00  0.00    +0.029 A 
ATOM     12  C   UNL     1       1.203   2.259 -23.462  0.00  0.00    +0.016 A 
ATOM     13  C   UNL     1       1.107   2.704 -24.680  0.00  0.00    +0.002 A 
ATOM     14  C   UNL     1      -0.040   3.117 -25.132  0.00  0.00    +0.012 A 
ATOM     15 BR   UNL     1       0.248   1.785 -21.478  0.00  0.00    -0.050 Br
ATOM     16  O   UNL     1      -1.948   2.167 -21.166  0.00  0.00    -0.286 OA
ATOM     17  C   UNL     1      -1.091   3.086 -24.367  0.00  0.00    +0.034 A 
ENDROOT
BRANCH   7  18
ATOM     18  O   UNL     1      -4.145   2.550 -20.853  0.00  0.00    -0.506 OA
ATOM     19  H   UNL     1      -4.872   2.111 -20.456  0.00  0.00    +0.292 HD
ENDBRANCH   7  18
TORSDOF 1
ENDMDL
MODEL 5
REMARK VINA RESULT:    -8.578      2.175      3.833
REMARK INTER + INTRA:          -8.829
REMARK INTER:                  -8.829
REMARK INTRA:                   0.000
REMARK UNBOUND:                 0.000
REMARK  Name = ZINC000004104918
REMARK  1 active torsions:
REMARK  status: ('A' for Active; 'I' for Inactive)
REMARK    1  A    between atoms: C_7  and  O_8
REMARK                            x       y       z     vdW  Elec       q    Type
REMARK                         _______ _______ _______ _____ _____    ______ ____
ROOT
ATOM      1  O   UNL     1       1.230   3.363 -25.829  0.00  0.00    -0.287 OA
ATOM      2  C   UNL     1       0.781   3.003 -24.663  0.00  0.00    +0.195 C 
ATOM      3  C   UNL     1       1.593   2.510 -23.777  0.00  0.00    +0.037 A 
ATOM      4  C   UNL     1       2.857   2.375 -24.056  0.00  0.00    +0.012 A 
ATOM      5  C   UNL     1       3.669   1.881 -23.169  0.00  0.00    +0.004 A 
ATOM      6  C   UNL     1       3.220   1.522 -22.004  0.00  0.00    +0.046 A 
ATOM      7  C   UNL     1       1.957   1.657 -21.725  0.00  0.00    +0.128 A 
ATOM      8  C   UNL     1       1.144   2.150 -22.611  0.00  0.00    +0.074 A 
ATOM      9  C   UNL     1      -0.118   2.285 -22.332  0.00  0.00    +0.199 C 
ATOM     10  C   UNL     1      -0.931   2.778 -23.218  0.00  0.00    +0.047 A 
ATOM     11  C   UNL     1      -2.194   2.913 -22.939  0.00  0.00    +0.029 A 
ATOM     12  C   UNL     1      -3.007   3.406 -23.825  0.00  0.00    +0.016 A 
ATOM     13  C   UNL     1      -2.557   3.766 -24.990  0.00  0.00    +0.002 A 
ATOM     14  C   UNL     1      -1.295   3.631 -25.270  0.00  0.00    +0.012 A 
ATOM     15 BR   UNL     1      -2.643   2.553 -21.773  0.00  0.00    -0.050 Br
ATOM     16  O   UNL     1      -0.568   1.925 -21.166  0.00  0.00    -0.286 OA
ATOM     17  C   UNL     1      -0.481   3.138 -24.383  0.00  0.00    +0.034 A 
ENDROOT
BRANCH   7  18
ATOM     18  O   UNL     1       1.508   1.297 -20.559  0.00  0.00    -0.506 OA
ATOM     19  H   UNL     1       1.157   0.437 -20.437  0.00  0.00    +0.292 HD
ENDBRANCH   7  18
TORSDOF 1
ENDMDL
MODEL 6
REMARK VINA RESULT:    -8.569      1.884      4.507
REMARK INTER + INTRA:          -8.819
REMARK INTER:                  -8.819
REMARK INTRA:                   0.000
REMARK UNBOUND:                 0.000
REMARK  Name = ZINC000004104918
REMARK  1 active torsions:
REMARK  status: ('A' for Active; 'I' for Inactive)
REMARK    1  A    between atoms: C_7  and  O_8
REMARK                            x       y       z     vdW  Elec       q    Type
REMARK                         _______ _______ _______ _____ _____    ______ ____
ROOT
ATOM      1  O   UNL     1      -0.085   1.127 -20.675  0.00  0.00    -0.287 OA
ATOM      2  C   UNL     1      -0.294   1.867 -21.724  0.00  0.00    +0.195 C 
ATOM      3  C   UNL     1      -1.473   2.370 -21.939  0.00  0.00    +0.037 A 
ATOM      4  C   UNL     1      -2.443   2.135 -21.105  0.00  0.00    +0.012 A 
ATOM      5  C   UNL     1      -3.621   2.639 -21.320  0.00  0.00    +0.004 A 
ATOM      6  C   UNL     1      -3.831   3.378 -22.368  0.00  0.00    +0.046 A 
ATOM      7  C   UNL     1      -2.862   3.614 -23.201  0.00  0.00    +0.128 A 
ATOM      8  C   UNL     1      -1.682   3.110 -22.987  0.00  0.00    +0.074 A 
ATOM      9  C   UNL     1      -0.713   3.346 -23.820  0.00  0.00    +0.199 C 
ATOM     10  C   UNL     1       0.465   2.842 -23.606  0.00  0.00    +0.047 A 
ATOM     11  C   UNL     1       1.435   3.078 -24.439  0.00  0.00    +0.029 A 
ATOM     12  C   UNL     1       2.614   2.574 -24.225  0.00  0.00    +0.016 A 
ATOM     13  C   UNL     1       2.824   1.834 -23.176  0.00  0.00    +0.002 A 
ATOM     14  C   UNL     1       1.855   1.598 -22.343  0.00  0.00    +0.012 A 
ATOM     15 BR   UNL     1       1.225   3.817 -25.488  0.00  0.00    -0.050 Br
ATOM     16  O   UNL     1      -0.923   4.086 -24.869  0.00  0.00    -0.286 OA
ATOM     17  C   UNL     1       0.675   2.102 -22.557  0.00  0.00    +0.034 A 
ENDROOT
BRANCH   7  18
ATOM     18  O   UNL     1      -3.071   4.354 -24.250  0.00  0.00    -0.506 OA
ATOM     19  H   UNL     1      -3.494   5.186 -24.160  0.00  0.00    +0.292 HD
ENDBRANCH   7  18
TORSDOF 1
ENDMDL
MODEL 7
REMARK VINA RESULT:    -8.554      3.419      6.223
REMARK INTER + INTRA:          -8.804
REMARK INTER:                  -8.804
REMARK INTRA:                   0.000
REMARK UNBOUND:                 0.000
REMARK  Name = ZINC000004104918
REMARK  1 active torsions:
REMARK  status: ('A' for Active; 'I' for Inactive)
REMARK    1  A    between atoms: C_7  and  O_8
REMARK                            x       y       z     vdW  Elec       q    Type
REMARK                         _______ _______ _______ _____ _____    ______ ____
ROOT
ATOM      1  O   UNL     1       1.951   5.993 -23.636  0.00  0.00    -0.287 OA
ATOM      2  C   UNL     1       1.828   4.732 -23.346  0.00  0.00    +0.195 C 
ATOM      3  C   UNL     1       0.647   4.197 -23.260  0.00  0.00    +0.037 A 
ATOM      4  C   UNL     1      -0.413   4.924 -23.464  0.00  0.00    +0.012 A 
ATOM      5  C   UNL     1      -1.594   4.388 -23.378  0.00  0.00    +0.004 A 
ATOM      6  C   UNL     1      -1.717   3.128 -23.088  0.00  0.00    +0.046 A 
ATOM      7  C   UNL     1      -0.659   2.402 -22.884  0.00  0.00    +0.128 A 
ATOM      8  C   UNL     1       0.523   2.936 -22.970  0.00  0.00    +0.074 A 
ATOM      9  C   UNL     1       1.581   2.209 -22.765  0.00  0.00    +0.199 C 
ATOM     10  C   UNL     1       2.763   2.744 -22.851  0.00  0.00    +0.047 A 
ATOM     11  C   UNL     1       3.822   2.017 -22.647  0.00  0.00    +0.029 A 
ATOM     12  C   UNL     1       5.004   2.552 -22.733  0.00  0.00    +0.016 A 
ATOM     13  C   UNL     1       5.127   3.813 -23.023  0.00  0.00    +0.002 A 
ATOM     14  C   UNL     1       4.069   4.540 -23.227  0.00  0.00    +0.012 A 
ATOM     15 BR   UNL     1       3.698   0.756 -22.357  0.00  0.00    -0.050 Br
ATOM     16  O   UNL     1       1.458   0.948 -22.475  0.00  0.00    -0.286 OA
ATOM     17  C   UNL     1       2.886   4.005 -23.141  0.00  0.00    +0.034 A 
ENDROOT
BRANCH   7  18
ATOM     18  O   UNL     1      -0.783   1.140 -22.593  0.00  0.00    -0.506 OA
ATOM     19  H   UNL     1      -1.333   0.875 -21.883  0.00  0.00    +0.292 HD
ENDBRANCH   7  18
TORSDOF 1
ENDMDL
MODEL 8
REMARK VINA RESULT:    -8.348      3.529      6.233
REMARK INTER + INTRA:          -8.592
REMARK INTER:                  -8.592
REMARK INTRA:                   0.000
REMARK UNBOUND:                 0.000
REMARK  Name = ZINC000004104918
REMARK  1 active torsions:
REMARK  status: ('A' for Active; 'I' for Inactive)
REMARK    1  A    between atoms: C_7  and  O_8
REMARK                            x       y       z     vdW  Elec       q    Type
REMARK                         _______ _______ _______ _____ _____    ______ ____
ROOT
ATOM      1  O   UNL     1       0.472   0.663 -22.104  0.00  0.00    -0.287 OA
ATOM      2  C   UNL     1       1.194   1.707 -22.382  0.00  0.00    +0.195 C 
ATOM      3  C   UNL     1       0.621   2.819 -22.734  0.00  0.00    +0.037 A 
ATOM      4  C   UNL     1      -0.675   2.888 -22.807  0.00  0.00    +0.012 A 
ATOM      5  C   UNL     1      -1.248   4.001 -23.158  0.00  0.00    +0.004 A 
ATOM      6  C   UNL     1      -0.526   5.044 -23.436  0.00  0.00    +0.046 A 
ATOM      7  C   UNL     1       0.770   4.976 -23.363  0.00  0.00    +0.128 A 
ATOM      8  C   UNL     1       1.344   3.863 -23.012  0.00  0.00    +0.074 A 
ATOM      9  C   UNL     1       2.640   3.795 -22.939  0.00  0.00    +0.199 C 
ATOM     10  C   UNL     1       3.213   2.683 -22.588  0.00  0.00    +0.047 A 
ATOM     11  C   UNL     1       4.510   2.614 -22.515  0.00  0.00    +0.029 A 
ATOM     12  C   UNL     1       5.083   1.501 -22.164  0.00  0.00    +0.016 A 
ATOM     13  C   UNL     1       4.360   0.457 -21.886  0.00  0.00    +0.002 A 
ATOM     14  C   UNL     1       3.064   0.526 -21.958  0.00  0.00    +0.012 A 
ATOM     15 BR   UNL     1       5.232   3.658 -22.793  0.00  0.00    -0.050 Br
ATOM     16  O   UNL     1       3.363   4.839 -23.217  0.00  0.00    -0.286 OA
ATOM     17  C   UNL     1       2.490   1.638 -22.310  0.00  0.00    +0.034 A 
ENDROOT
BRANCH   7  18
ATOM     18  O   UNL     1       1.493   6.020 -23.641  0.00  0.00    -0.506 OA
ATOM     19  H   UNL     1       1.446   6.781 -23.096  0.00  0.00    +0.292 HD
ENDBRANCH   7  18
TORSDOF 1
ENDMDL
MODEL 9
REMARK VINA RESULT:    -7.015      4.629      6.674
REMARK INTER + INTRA:          -7.220
REMARK INTER:                  -7.220
REMARK INTRA:                   0.000
REMARK UNBOUND:                 0.000
REMARK  Name = ZINC000004104918
REMARK  1 active torsions:
REMARK  status: ('A' for Active; 'I' for Inactive)
REMARK    1  A    between atoms: C_7  and  O_8
REMARK                            x       y       z     vdW  Elec       q    Type
REMARK                         _______ _______ _______ _____ _____    ______ ____
ROOT
ATOM      1  O   UNL     1       3.090   6.020 -23.082  0.00  0.00    -0.287 OA
ATOM      2  C   UNL     1       3.459   4.777 -22.986  0.00  0.00    +0.195 C 
ATOM      3  C   UNL     1       4.721   4.478 -22.897  0.00  0.00    +0.037 A 
ATOM      4  C   UNL     1       5.615   5.423 -22.903  0.00  0.00    +0.012 A 
ATOM      5  C   UNL     1       6.877   5.124 -22.814  0.00  0.00    +0.004 A 
ATOM      6  C   UNL     1       7.246   3.882 -22.717  0.00  0.00    +0.046 A 
ATOM      7  C   UNL     1       6.353   2.938 -22.711  0.00  0.00    +0.128 A 
ATOM      8  C   UNL     1       5.090   3.236 -22.800  0.00  0.00    +0.074 A 
ATOM      9  C   UNL     1       4.197   2.291 -22.794  0.00  0.00    +0.199 C 
ATOM     10  C   UNL     1       2.936   2.589 -22.883  0.00  0.00    +0.047 A 
ATOM     11  C   UNL     1       2.042   1.644 -22.877  0.00  0.00    +0.029 A 
ATOM     12  C   UNL     1       0.780   1.943 -22.966  0.00  0.00    +0.016 A 
ATOM     13  C   UNL     1       0.411   3.185 -23.062  0.00  0.00    +0.002 A 
ATOM     14  C   UNL     1       1.304   4.130 -23.069  0.00  0.00    +0.012 A 
ATOM     15 BR   UNL     1       2.412   0.402 -22.780  0.00  0.00    -0.050 Br
ATOM     16  O   UNL     1       4.566   1.048 -22.697  0.00  0.00    -0.286 OA
ATOM     17  C   UNL     1       2.567   3.832 -22.979  0.00  0.00    +0.034 A 
ENDROOT
BRANCH   7  18
ATOM     18  O   UNL     1       6.722   1.695 -22.615  0.00  0.00    -0.506 OA
ATOM     19  H   UNL     1       7.149   1.276 -23.336  0.00  0.00    +0.292 HD
ENDBRANCH   7  18
TORSDOF 1
ENDMDL
