MODEL 1
REMARK VINA RESULT:    -9.119      0.000      0.000
REMARK INTER + INTRA:         -14.060
REMARK INTER:                 -13.689
REMARK INTRA:                  -0.371
REMARK UNBOUND:                 0.657
REMARK  Name = ZINC000008382291
REMARK  18 active torsions:
REMARK  status: ('A' for Active; 'I' for Inactive)
REMARK    1  A    between atoms: C_1  and  O_2
REMARK    2  A    between atoms: O_2  and  C_3
REMARK    3  A    between atoms: C_5  and  O_6
REMARK    4  A    between atoms: O_6  and  C_7
REMARK    5  A    between atoms: C_8  and  C_9
REMARK    6  A    between atoms: C_10  and  C_11
REMARK    7  A    between atoms: C_11  and  C_13
REMARK    8  A    between atoms: C_14  and  O_15
REMARK    9  A    between atoms: O_15  and  C_16
REMARK   10  A    between atoms: C_18  and  O_19
REMARK   11  A    between atoms: O_19  and  C_20
REMARK   12  A    between atoms: C_21  and  C_22
REMARK   13  A    between atoms: C_22  and  C_23
REMARK   14  A    between atoms: C_24  and  C_25
REMARK   15  A    between atoms: C_24  and  C_26
REMARK   16  A    between atoms: C_27  and  O_28
REMARK   17  A    between atoms: C_29  and  O_30
REMARK   18  A    between atoms: O_30  and  C_31
REMARK                            x       y       z     vdW  Elec       q    Type
REMARK                         _______ _______ _______ _____ _____    ______ ____
ROOT
ATOM      1  C   UNL     1      -0.231   2.643 -23.007  0.00  0.00    +0.105 A 
ATOM      2  C   UNL     1      -0.268   3.050 -24.241  0.00  0.00    +0.138 A 
ATOM      3  C   UNL     1      -1.269   3.768 -24.658  0.00  0.00    +0.092 A 
ATOM      4  C   UNL     1      -2.232   4.078 -23.841  0.00  0.00    +0.131 A 
ATOM      5  C   UNL     1      -2.194   3.671 -22.607  0.00  0.00    +0.040 A 
ATOM      6  C   UNL     1      -1.193   2.954 -22.190  0.00  0.00    +0.138 A 
ENDROOT
BRANCH   1   7
ATOM      7  C   UNL     1       0.770   1.926 -22.591  0.00  0.00    +0.193 C 
ATOM      8  O   UNL     1       0.636   0.640 -22.452  0.00  0.00    -0.287 OA
BRANCH   7  10
ATOM      9  C   UNL     1       2.966   2.205 -23.007  0.00  0.00    +0.019 C 
ATOM     10  C   UNL     1       1.906   2.494 -22.312  0.00  0.00    +0.052 C 
BRANCH   9  14
ATOM     11  C   UNL     1       6.371   3.911 -22.169  0.00  0.00    +0.127 A 
ATOM     12  C   UNL     1       5.412   4.604 -22.708  0.00  0.00    +0.092 A 
ATOM     13  C   UNL     1       4.277   4.036 -22.987  0.00  0.00    +0.134 A 
ATOM     14  C   UNL     1       4.101   2.774 -22.728  0.00  0.00    +0.059 A 
ATOM     15  C   UNL     1       5.060   2.081 -22.189  0.00  0.00    +0.134 A 
ATOM     16  C   UNL     1       6.195   2.650 -21.910  0.00  0.00    +0.092 A 
BRANCH  15  17
ATOM     17  O   UNL     1       4.884   0.819 -21.930  0.00  0.00    -0.494 OA
ATOM     18  C   UNL     1       4.949   0.392 -20.704  0.00  0.00    +0.277 C 
ENDBRANCH  15  17
BRANCH  13  19
ATOM     19  O   UNL     1       3.318   4.728 -23.526  0.00  0.00    -0.494 OA
ATOM     20  C   UNL     1       2.923   5.835 -22.970  0.00  0.00    +0.277 C 
ENDBRANCH  13  19
BRANCH  11  22
ATOM     21  C   UNL     1       7.752   4.881 -20.679  0.00  0.00    +0.277 C 
ATOM     22  O   UNL     1       7.506   4.480 -21.890  0.00  0.00    -0.495 OA
ENDBRANCH  11  22
ENDBRANCH   9  14
ENDBRANCH   7  10
ENDBRANCH   1   7
BRANCH   4  23
ATOM     23  O   UNL     1      -3.233   4.796 -24.258  0.00  0.00    -0.495 OA
ATOM     24  C   UNL     1      -3.766   4.557 -25.419  0.00  0.00    +0.277 C 
ENDBRANCH   4  23
BRANCH   2  25
ATOM     25  O   UNL     1       0.693   2.740 -25.059  0.00  0.00    -0.494 OA
ATOM     26  C   UNL     1       1.220   3.655 -25.818  0.00  0.00    +0.277 C 
ENDBRANCH   2  25
BRANCH   6  27
ATOM     27  O   UNL     1      -1.155   2.546 -20.956  0.00  0.00    -0.506 OA
ATOM     28  H   UNL     1      -0.435   2.028 -20.656  0.00  0.00    +0.292 HD
ENDBRANCH   6  27
BRANCH   5  29
ATOM     29  C   UNL     1      -3.157   3.982 -21.790  0.00  0.00    +0.069 C 
BRANCH  29  30
ATOM     30  C   UNL     1      -4.390   3.732 -22.115  0.00  0.00    -0.023 C 
ATOM     31  C   UNL     1      -5.062   2.827 -21.466  0.00  0.00    -0.079 C 
ATOM     32  C   UNL     1      -4.500   2.173 -20.493  0.00  0.00    +0.038 C 
ATOM     33  C   UNL     1      -6.295   2.577 -21.790  0.00  0.00    +0.038 C 
ENDBRANCH  29  30
ENDBRANCH   5  29
TORSDOF 11
ENDMDL
MODEL 2
REMARK VINA RESULT:    -9.083      0.077      2.085
REMARK INTER + INTRA:         -14.002
REMARK INTER:                 -13.577
REMARK INTRA:                  -0.424
REMARK UNBOUND:                 0.657
REMARK  Name = ZINC000008382291
REMARK  18 active torsions:
REMARK  status: ('A' for Active; 'I' for Inactive)
REMARK    1  A    between atoms: C_1  and  O_2
REMARK    2  A    between atoms: O_2  and  C_3
REMARK    3  A    between atoms: C_5  and  O_6
REMARK    4  A    between atoms: O_6  and  C_7
REMARK    5  A    between atoms: C_8  and  C_9
REMARK    6  A    between atoms: C_10  and  C_11
REMARK    7  A    between atoms: C_11  and  C_13
REMARK    8  A    between atoms: C_14  and  O_15
REMARK    9  A    between atoms: O_15  and  C_16
REMARK   10  A    between atoms: C_18  and  O_19
REMARK   11  A    between atoms: O_19  and  C_20
REMARK   12  A    between atoms: C_21  and  C_22
REMARK   13  A    between atoms: C_22  and  C_23
REMARK   14  A    between atoms: C_24  and  C_25
REMARK   15  A    between atoms: C_24  and  C_26
REMARK   16  A    between atoms: C_27  and  O_28
REMARK   17  A    between atoms: C_29  and  O_30
REMARK   18  A    between atoms: O_30  and  C_31
REMARK                            x       y       z     vdW  Elec       q    Type
REMARK                         _______ _______ _______ _____ _____    ______ ____
ROOT
ATOM      1  C   UNL     1      -0.203   2.641 -23.019  0.00  0.00    +0.105 A 
ATOM      2  C   UNL     1      -0.239   3.017 -24.264  0.00  0.00    +0.138 A 
ATOM      3  C   UNL     1      -1.240   3.722 -24.700  0.00  0.00    +0.092 A 
ATOM      4  C   UNL     1      -2.204   4.052 -23.894  0.00  0.00    +0.131 A 
ATOM      5  C   UNL     1      -2.169   3.676 -22.649  0.00  0.00    +0.040 A 
ATOM      6  C   UNL     1      -1.168   2.971 -22.213  0.00  0.00    +0.138 A 
ENDROOT
BRANCH   1   7
ATOM      7  C   UNL     1       0.798   1.936 -22.583  0.00  0.00    +0.193 C 
ATOM      8  O   UNL     1       0.670   0.651 -22.429  0.00  0.00    -0.287 OA
BRANCH   7  10
ATOM      9  C   UNL     1       2.986   2.256 -23.006  0.00  0.00    +0.019 C 
ATOM     10  C   UNL     1       1.926   2.516 -22.299  0.00  0.00    +0.052 C 
BRANCH   9  14
ATOM     11  C   UNL     1       6.371   3.998 -22.154  0.00  0.00    +0.127 A 
ATOM     12  C   UNL     1       6.218   2.726 -21.926  0.00  0.00    +0.092 A 
ATOM     13  C   UNL     1       5.090   2.146 -22.210  0.00  0.00    +0.134 A 
ATOM     14  C   UNL     1       4.115   2.836 -22.722  0.00  0.00    +0.059 A 
ATOM     15  C   UNL     1       4.267   4.107 -22.950  0.00  0.00    +0.134 A 
ATOM     16  C   UNL     1       5.395   4.687 -22.666  0.00  0.00    +0.092 A 
BRANCH  15  17
ATOM     17  O   UNL     1       3.291   4.797 -23.462  0.00  0.00    -0.494 OA
ATOM     18  C   UNL     1       2.995   5.965 -22.976  0.00  0.00    +0.277 C 
ENDBRANCH  15  17
BRANCH  13  19
ATOM     19  O   UNL     1       4.937   0.876 -21.982  0.00  0.00    -0.494 OA
ATOM     20  C   UNL     1       4.926   0.430 -20.760  0.00  0.00    +0.277 C 
ENDBRANCH  13  19
BRANCH  11  22
ATOM     21  C   UNL     1       7.714   5.028 -20.671  0.00  0.00    +0.277 C 
ATOM     22  O   UNL     1       7.498   4.578 -21.871  0.00  0.00    -0.495 OA
ENDBRANCH  11  22
ENDBRANCH   9  14
ENDBRANCH   7  10
ENDBRANCH   1   7
BRANCH   4  23
ATOM     23  O   UNL     1      -3.205   4.757 -24.330  0.00  0.00    -0.495 OA
ATOM     24  C   UNL     1      -3.698   4.526 -25.511  0.00  0.00    +0.277 C 
ENDBRANCH   4  23
BRANCH   2  25
ATOM     25  O   UNL     1       0.725   2.687 -25.071  0.00  0.00    -0.494 OA
ATOM     26  C   UNL     1       1.249   3.582 -25.855  0.00  0.00    +0.277 C 
ENDBRANCH   2  25
BRANCH   6  27
ATOM     27  O   UNL     1      -1.132   2.595 -20.968  0.00  0.00    -0.506 OA
ATOM     28  H   UNL     1      -1.304   1.702 -20.744  0.00  0.00    +0.292 HD
ENDBRANCH   6  27
BRANCH   5  29
ATOM     29  C   UNL     1      -3.133   4.006 -21.843  0.00  0.00    +0.069 C 
BRANCH  29  30
ATOM     30  C   UNL     1      -4.366   3.743 -22.162  0.00  0.00    -0.023 C 
ATOM     31  C   UNL     1      -5.033   2.852 -21.491  0.00  0.00    -0.079 C 
ATOM     32  C   UNL     1      -4.470   2.224 -20.503  0.00  0.00    +0.038 C 
ATOM     33  C   UNL     1      -6.266   2.589 -21.810  0.00  0.00    +0.038 C 
ENDBRANCH  29  30
ENDBRANCH   5  29
TORSDOF 11
ENDMDL
MODEL 3
REMARK VINA RESULT:    -8.971      1.718      8.203
REMARK INTER + INTRA:         -13.821
REMARK INTER:                 -13.200
REMARK INTRA:                  -0.621
REMARK UNBOUND:                 0.657
REMARK  Name = ZINC000008382291
REMARK  18 active torsions:
REMARK  status: ('A' for Active; 'I' for Inactive)
REMARK    1  A    between atoms: C_1  and  O_2
REMARK    2  A    between atoms: O_2  and  C_3
REMARK    3  A    between atoms: C_5  and  O_6
REMARK    4  A    between atoms: O_6  and  C_7
REMARK    5  A    between atoms: C_8  and  C_9
REMARK    6  A    between atoms: C_10  and  C_11
REMARK    7  A    between atoms: C_11  and  C_13
REMARK    8  A    between atoms: C_14  and  O_15
REMARK    9  A    between atoms: O_15  and  C_16
REMARK   10  A    between atoms: C_18  and  O_19
REMARK   11  A    between atoms: O_19  and  C_20
REMARK   12  A    between atoms: C_21  and  C_22
REMARK   13  A    between atoms: C_22  and  C_23
REMARK   14  A    between atoms: C_24  and  C_25
REMARK   15  A    between atoms: C_24  and  C_26
REMARK   16  A    between atoms: C_27  and  O_28
REMARK   17  A    between atoms: C_29  and  O_30
REMARK   18  A    between atoms: O_30  and  C_31
REMARK                            x       y       z     vdW  Elec       q    Type
REMARK                         _______ _______ _______ _____ _____    ______ ____
ROOT
ATOM      1  C   UNL     1       2.099   3.739 -24.086  0.00  0.00    +0.105 A 
ATOM      2  C   UNL     1       2.728   2.621 -23.873  0.00  0.00    +0.138 A 
ATOM      3  C   UNL     1       3.822   2.615 -23.171  0.00  0.00    +0.092 A 
ATOM      4  C   UNL     1       4.286   3.726 -22.680  0.00  0.00    +0.131 A 
ATOM      5  C   UNL     1       3.656   4.844 -22.892  0.00  0.00    +0.040 A 
ATOM      6  C   UNL     1       2.563   4.850 -23.595  0.00  0.00    +0.138 A 
ENDROOT
BRANCH   1   7
ATOM      7  C   UNL     1       1.005   3.745 -24.788  0.00  0.00    +0.193 C 
ATOM      8  O   UNL     1       1.019   4.191 -26.010  0.00  0.00    -0.287 OA
BRANCH   7  10
ATOM      9  C   UNL     1      -0.794   4.064 -23.472  0.00  0.00    +0.019 C 
ATOM     10  C   UNL     1      -0.103   3.305 -24.269  0.00  0.00    +0.052 C 
BRANCH   9  14
ATOM     11  C   UNL     1      -4.118   2.743 -21.917  0.00  0.00    +0.127 A 
ATOM     12  C   UNL     1      -2.977   2.430 -21.376  0.00  0.00    +0.092 A 
ATOM     13  C   UNL     1      -1.870   2.870 -21.894  0.00  0.00    +0.134 A 
ATOM     14  C   UNL     1      -1.902   3.623 -22.953  0.00  0.00    +0.059 A 
ATOM     15  C   UNL     1      -3.042   3.936 -23.495  0.00  0.00    +0.134 A 
ATOM     16  C   UNL     1      -4.150   3.496 -22.977  0.00  0.00    +0.092 A 
BRANCH  15  17
ATOM     17  O   UNL     1      -3.074   4.689 -24.554  0.00  0.00    -0.494 OA
ATOM     18  C   UNL     1      -3.885   4.406 -25.529  0.00  0.00    +0.277 C 
ENDBRANCH  15  17
BRANCH  13  19
ATOM     19  O   UNL     1      -0.730   2.558 -21.354  0.00  0.00    -0.494 OA
ATOM     20  C   UNL     1      -0.357   1.314 -21.294  0.00  0.00    +0.277 C 
ENDBRANCH  13  19
BRANCH  11  22
ATOM     21  C   UNL     1      -6.366   2.778 -21.802  0.00  0.00    +0.277 C 
ATOM     22  O   UNL     1      -5.226   2.302 -21.399  0.00  0.00    -0.495 OA
ENDBRANCH  11  22
ENDBRANCH   9  14
ENDBRANCH   7  10
ENDBRANCH   1   7
BRANCH   4  23
ATOM     23  O   UNL     1       5.379   3.720 -21.977  0.00  0.00    -0.495 OA
ATOM     24  C   UNL     1       5.739   2.643 -21.343  0.00  0.00    +0.277 C 
ENDBRANCH   4  23
BRANCH   2  25
ATOM     25  O   UNL     1       2.265   1.510 -24.364  0.00  0.00    -0.494 OA
ATOM     26  C   UNL     1       3.064   0.688 -24.976  0.00  0.00    +0.277 C 
ENDBRANCH   2  25
BRANCH   6  27
ATOM     27  O   UNL     1       1.933   5.967 -23.807  0.00  0.00    -0.506 OA
ATOM     28  H   UNL     1       1.748   6.241 -24.684  0.00  0.00    +0.292 HD
ENDBRANCH   6  27
BRANCH   5  29
ATOM     29  C   UNL     1       4.120   5.954 -22.401  0.00  0.00    +0.069 C 
BRANCH  29  30
ATOM     30  C   UNL     1       5.385   6.236 -22.513  0.00  0.00    -0.023 C 
ATOM     31  C   UNL     1       5.899   7.201 -21.810  0.00  0.00    -0.079 C 
ATOM     32  C   UNL     1       5.150   7.884 -20.996  0.00  0.00    +0.038 C 
ATOM     33  C   UNL     1       7.163   7.483 -21.921  0.00  0.00    +0.038 C 
ENDBRANCH  29  30
ENDBRANCH   5  29
TORSDOF 11
ENDMDL
MODEL 4
REMARK VINA RESULT:    -8.962      1.717      7.946
REMARK INTER + INTRA:         -13.806
REMARK INTER:                 -13.185
REMARK INTRA:                  -0.621
REMARK UNBOUND:                 0.657
REMARK  Name = ZINC000008382291
REMARK  18 active torsions:
REMARK  status: ('A' for Active; 'I' for Inactive)
REMARK    1  A    between atoms: C_1  and  O_2
REMARK    2  A    between atoms: O_2  and  C_3
REMARK    3  A    between atoms: C_5  and  O_6
REMARK    4  A    between atoms: O_6  and  C_7
REMARK    5  A    between atoms: C_8  and  C_9
REMARK    6  A    between atoms: C_10  and  C_11
REMARK    7  A    between atoms: C_11  and  C_13
REMARK    8  A    between atoms: C_14  and  O_15
REMARK    9  A    between atoms: O_15  and  C_16
REMARK   10  A    between atoms: C_18  and  O_19
REMARK   11  A    between atoms: O_19  and  C_20
REMARK   12  A    between atoms: C_21  and  C_22
REMARK   13  A    between atoms: C_22  and  C_23
REMARK   14  A    between atoms: C_24  and  C_25
REMARK   15  A    between atoms: C_24  and  C_26
REMARK   16  A    between atoms: C_27  and  O_28
REMARK   17  A    between atoms: C_29  and  O_30
REMARK   18  A    between atoms: O_30  and  C_31
REMARK                            x       y       z     vdW  Elec       q    Type
REMARK                         _______ _______ _______ _____ _____    ______ ____
ROOT
ATOM      1  C   UNL     1       2.076   3.778 -24.132  0.00  0.00    +0.105 A 
ATOM      2  C   UNL     1       2.699   2.654 -23.935  0.00  0.00    +0.138 A 
ATOM      3  C   UNL     1       3.782   2.629 -23.216  0.00  0.00    +0.092 A 
ATOM      4  C   UNL     1       4.242   3.728 -22.695  0.00  0.00    +0.131 A 
ATOM      5  C   UNL     1       3.619   4.852 -22.892  0.00  0.00    +0.040 A 
ATOM      6  C   UNL     1       2.536   4.876 -23.610  0.00  0.00    +0.138 A 
ENDROOT
BRANCH   1   7
ATOM      7  C   UNL     1       0.993   3.802 -24.850  0.00  0.00    +0.193 C 
ATOM      8  O   UNL     1       1.030   4.258 -26.067  0.00  0.00    -0.287 OA
BRANCH   7  10
ATOM      9  C   UNL     1      -0.719   4.040 -23.407  0.00  0.00    +0.019 C 
ATOM     10  C   UNL     1      -0.128   3.371 -24.351  0.00  0.00    +0.052 C 
BRANCH   9  14
ATOM     11  C   UNL     1      -4.080   2.744 -21.911  0.00  0.00    +0.127 A 
ATOM     12  C   UNL     1      -4.089   3.521 -22.954  0.00  0.00    +0.092 A 
ATOM     13  C   UNL     1      -2.969   3.953 -23.452  0.00  0.00    +0.134 A 
ATOM     14  C   UNL     1      -1.840   3.608 -22.908  0.00  0.00    +0.059 A 
ATOM     15  C   UNL     1      -1.830   2.831 -21.866  0.00  0.00    +0.134 A 
ATOM     16  C   UNL     1      -2.950   2.399 -21.367  0.00  0.00    +0.092 A 
BRANCH  15  17
ATOM     17  O   UNL     1      -0.701   2.487 -21.322  0.00  0.00    -0.494 OA
ATOM     18  C   UNL     1      -0.309   1.249 -21.365  0.00  0.00    +0.277 C 
ENDBRANCH  15  17
BRANCH  13  19
ATOM     19  O   UNL     1      -2.978   4.729 -24.494  0.00  0.00    -0.494 OA
ATOM     20  C   UNL     1      -3.801   4.495 -25.474  0.00  0.00    +0.277 C 
ENDBRANCH  13  19
BRANCH  11  22
ATOM     21  C   UNL     1      -6.327   2.819 -21.811  0.00  0.00    +0.277 C 
ATOM     22  O   UNL     1      -5.199   2.312 -21.412  0.00  0.00    -0.495 OA
ENDBRANCH  11  22
ENDBRANCH   9  14
ENDBRANCH   7  10
ENDBRANCH   1   7
BRANCH   4  23
ATOM     23  O   UNL     1       5.325   3.703 -21.976  0.00  0.00    -0.495 OA
ATOM     24  C   UNL     1       6.285   2.879 -22.274  0.00  0.00    +0.277 C 
ENDBRANCH   4  23
BRANCH   2  25
ATOM     25  O   UNL     1       2.240   1.555 -24.456  0.00  0.00    -0.494 OA
ATOM     26  C   UNL     1       3.065   0.646 -24.885  0.00  0.00    +0.277 C 
ENDBRANCH   2  25
BRANCH   6  27
ATOM     27  O   UNL     1       1.912   6.000 -23.807  0.00  0.00    -0.506 OA
ATOM     28  H   UNL     1       0.979   6.036 -23.736  0.00  0.00    +0.292 HD
ENDBRANCH   6  27
BRANCH   5  29
ATOM     29  C   UNL     1       4.078   5.950 -22.370  0.00  0.00    +0.069 C 
BRANCH  29  30
ATOM     30  C   UNL     1       5.332   6.264 -22.516  0.00  0.00    -0.023 C 
ATOM     31  C   UNL     1       5.857   7.196 -21.777  0.00  0.00    -0.079 C 
ATOM     32  C   UNL     1       5.131   7.813 -20.893  0.00  0.00    +0.038 C 
ATOM     33  C   UNL     1       7.110   7.509 -21.922  0.00  0.00    +0.038 C 
ENDBRANCH  29  30
ENDBRANCH   5  29
TORSDOF 11
ENDMDL
MODEL 5
REMARK VINA RESULT:    -8.794      1.838      4.008
REMARK INTER + INTRA:         -13.535
REMARK INTER:                 -12.311
REMARK INTRA:                  -1.224
REMARK UNBOUND:                 0.657
REMARK  Name = ZINC000008382291
REMARK  18 active torsions:
REMARK  status: ('A' for Active; 'I' for Inactive)
REMARK    1  A    between atoms: C_1  and  O_2
REMARK    2  A    between atoms: O_2  and  C_3
REMARK    3  A    between atoms: C_5  and  O_6
REMARK    4  A    between atoms: O_6  and  C_7
REMARK    5  A    between atoms: C_8  and  C_9
REMARK    6  A    between atoms: C_10  and  C_11
REMARK    7  A    between atoms: C_11  and  C_13
REMARK    8  A    between atoms: C_14  and  O_15
REMARK    9  A    between atoms: O_15  and  C_16
REMARK   10  A    between atoms: C_18  and  O_19
REMARK   11  A    between atoms: O_19  and  C_20
REMARK   12  A    between atoms: C_21  and  C_22
REMARK   13  A    between atoms: C_22  and  C_23
REMARK   14  A    between atoms: C_24  and  C_25
REMARK   15  A    between atoms: C_24  and  C_26
REMARK   16  A    between atoms: C_27  and  O_28
REMARK   17  A    between atoms: C_29  and  O_30
REMARK   18  A    between atoms: O_30  and  C_31
REMARK                            x       y       z     vdW  Elec       q    Type
REMARK                         _______ _______ _______ _____ _____    ______ ____
ROOT
ATOM      1  C   UNL     1       1.955   2.405 -23.226  0.00  0.00    +0.105 A 
ATOM      2  C   UNL     1       1.510   1.676 -22.246  0.00  0.00    +0.138 A 
ATOM      3  C   UNL     1       0.252   1.724 -21.920  0.00  0.00    +0.092 A 
ATOM      4  C   UNL     1      -0.560   2.500 -22.573  0.00  0.00    +0.131 A 
ATOM      5  C   UNL     1      -0.116   3.229 -23.554  0.00  0.00    +0.040 A 
ATOM      6  C   UNL     1       1.142   3.182 -23.880  0.00  0.00    +0.138 A 
ENDROOT
BRANCH   1   7
ATOM      7  C   UNL     1       3.212   2.358 -23.552  0.00  0.00    +0.193 C 
ATOM      8  O   UNL     1       3.600   1.606 -24.539  0.00  0.00    -0.287 OA
BRANCH   7  10
ATOM      9  C   UNL     1       4.901   3.847 -23.525  0.00  0.00    +0.019 C 
ATOM     10  C   UNL     1       4.082   3.062 -22.890  0.00  0.00    +0.052 C 
BRANCH   9  14
ATOM     11  C   UNL     1       7.508   5.961 -21.537  0.00  0.00    +0.127 A 
ATOM     12  C   UNL     1       7.855   4.818 -22.055  0.00  0.00    +0.092 A 
ATOM     13  C   UNL     1       6.987   4.114 -22.717  0.00  0.00    +0.134 A 
ATOM     14  C   UNL     1       5.771   4.551 -22.862  0.00  0.00    +0.059 A 
ATOM     15  C   UNL     1       5.424   5.693 -22.346  0.00  0.00    +0.134 A 
ATOM     16  C   UNL     1       6.292   6.397 -21.684  0.00  0.00    +0.092 A 
BRANCH  15  17
ATOM     17  O   UNL     1       4.208   6.129 -22.492  0.00  0.00    -0.494 OA
ATOM     18  C   UNL     1       3.902   7.337 -22.124  0.00  0.00    +0.277 C 
ENDBRANCH  15  17
BRANCH  13  19
ATOM     19  O   UNL     1       7.333   2.973 -23.233  0.00  0.00    -0.494 OA
ATOM     20  C   UNL     1       8.347   2.907 -24.045  0.00  0.00    +0.277 C 
ENDBRANCH  13  19
BRANCH  11  22
ATOM     21  C   UNL     1       8.049   7.835 -20.415  0.00  0.00    +0.277 C 
ATOM     22  O   UNL     1       8.377   6.665 -20.875  0.00  0.00    -0.495 OA
ENDBRANCH  11  22
ENDBRANCH   9  14
ENDBRANCH   7  10
ENDBRANCH   1   7
BRANCH   4  23
ATOM     23  O   UNL     1      -1.818   2.548 -22.247  0.00  0.00    -0.495 OA
ATOM     24  C   UNL     1      -2.173   3.028 -21.093  0.00  0.00    +0.277 C 
ENDBRANCH   4  23
BRANCH   2  25
ATOM     25  O   UNL     1       2.321   0.900 -21.592  0.00  0.00    -0.494 OA
ATOM     26  C   UNL     1       2.547   1.113 -20.329  0.00  0.00    +0.277 C 
ENDBRANCH   2  25
BRANCH   6  27
ATOM     27  O   UNL     1       1.587   3.911 -24.860  0.00  0.00    -0.506 OA
ATOM     28  H   UNL     1       2.396   4.375 -24.769  0.00  0.00    +0.292 HD
ENDBRANCH   6  27
BRANCH   5  29
ATOM     29  C   UNL     1      -0.928   4.006 -24.207  0.00  0.00    +0.069 C 
BRANCH  29  30
ATOM     30  C   UNL     1      -1.499   3.581 -25.295  0.00  0.00    -0.023 C 
ATOM     31  C   UNL     1      -2.748   3.859 -25.524  0.00  0.00    -0.079 C 
ATOM     32  C   UNL     1      -3.426   4.561 -24.666  0.00  0.00    +0.038 C 
ATOM     33  C   UNL     1      -3.318   3.434 -26.612  0.00  0.00    +0.038 C 
ENDBRANCH  29  30
ENDBRANCH   5  29
TORSDOF 11
ENDMDL
MODEL 6
REMARK VINA RESULT:    -8.764      1.832      3.583
REMARK INTER + INTRA:         -13.486
REMARK INTER:                 -12.271
REMARK INTRA:                  -1.215
REMARK UNBOUND:                 0.657
REMARK  Name = ZINC000008382291
REMARK  18 active torsions:
REMARK  status: ('A' for Active; 'I' for Inactive)
REMARK    1  A    between atoms: C_1  and  O_2
REMARK    2  A    between atoms: O_2  and  C_3
REMARK    3  A    between atoms: C_5  and  O_6
REMARK    4  A    between atoms: O_6  and  C_7
REMARK    5  A    between atoms: C_8  and  C_9
REMARK    6  A    between atoms: C_10  and  C_11
REMARK    7  A    between atoms: C_11  and  C_13
REMARK    8  A    between atoms: C_14  and  O_15
REMARK    9  A    between atoms: O_15  and  C_16
REMARK   10  A    between atoms: C_18  and  O_19
REMARK   11  A    between atoms: O_19  and  C_20
REMARK   12  A    between atoms: C_21  and  C_22
REMARK   13  A    between atoms: C_22  and  C_23
REMARK   14  A    between atoms: C_24  and  C_25
REMARK   15  A    between atoms: C_24  and  C_26
REMARK   16  A    between atoms: C_27  and  O_28
REMARK   17  A    between atoms: C_29  and  O_30
REMARK   18  A    between atoms: O_30  and  C_31
REMARK                            x       y       z     vdW  Elec       q    Type
REMARK                         _______ _______ _______ _____ _____    ______ ____
ROOT
ATOM      1  C   UNL     1       1.945   2.364 -23.259  0.00  0.00    +0.105 A 
ATOM      2  C   UNL     1       1.487   1.682 -22.251  0.00  0.00    +0.138 A 
ATOM      3  C   UNL     1       0.228   1.754 -21.937  0.00  0.00    +0.092 A 
ATOM      4  C   UNL     1      -0.574   2.507 -22.630  0.00  0.00    +0.131 A 
ATOM      5  C   UNL     1      -0.116   3.189 -23.639  0.00  0.00    +0.040 A 
ATOM      6  C   UNL     1       1.144   3.116 -23.953  0.00  0.00    +0.138 A 
ENDROOT
BRANCH   1   7
ATOM      7  C   UNL     1       3.205   2.292 -23.573  0.00  0.00    +0.193 C 
ATOM      8  O   UNL     1       3.595   1.484 -24.514  0.00  0.00    -0.287 OA
BRANCH   7  10
ATOM      9  C   UNL     1       4.915   3.756 -23.616  0.00  0.00    +0.019 C 
ATOM     10  C   UNL     1       4.074   3.027 -22.945  0.00  0.00    +0.052 C 
BRANCH   9  14
ATOM     11  C   UNL     1       7.521   5.961 -21.730  0.00  0.00    +0.127 A 
ATOM     12  C   UNL     1       6.282   6.348 -21.815  0.00  0.00    +0.092 A 
ATOM     13  C   UNL     1       5.414   5.614 -22.444  0.00  0.00    +0.134 A 
ATOM     14  C   UNL     1       5.784   4.492 -22.987  0.00  0.00    +0.059 A 
ATOM     15  C   UNL     1       7.022   4.105 -22.902  0.00  0.00    +0.134 A 
ATOM     16  C   UNL     1       7.890   4.840 -22.274  0.00  0.00    +0.092 A 
BRANCH  15  17
ATOM     17  O   UNL     1       7.391   2.983 -23.446  0.00  0.00    -0.494 OA
ATOM     18  C   UNL     1       8.504   2.919 -24.113  0.00  0.00    +0.277 C 
ENDBRANCH  15  17
BRANCH  13  19
ATOM     19  O   UNL     1       4.176   6.000 -22.529  0.00  0.00    -0.494 OA
ATOM     20  C   UNL     1       3.848   7.213 -22.196  0.00  0.00    +0.277 C 
ENDBRANCH  13  19
BRANCH  11  22
ATOM     21  C   UNL     1       8.146   7.955 -20.892  0.00  0.00    +0.277 C 
ATOM     22  O   UNL     1       8.389   6.696 -21.102  0.00  0.00    -0.495 OA
ENDBRANCH  11  22
ENDBRANCH   9  14
ENDBRANCH   7  10
ENDBRANCH   1   7
BRANCH   4  23
ATOM     23  O   UNL     1      -1.833   2.579 -22.316  0.00  0.00    -0.495 OA
ATOM     24  C   UNL     1      -2.190   3.061 -21.163  0.00  0.00    +0.277 C 
ENDBRANCH   4  23
BRANCH   2  25
ATOM     25  O   UNL     1       2.288   0.930 -21.557  0.00  0.00    -0.494 OA
ATOM     26  C   UNL     1       2.529   1.214 -20.311  0.00  0.00    +0.277 C 
ENDBRANCH   2  25
BRANCH   6  27
ATOM     27  O   UNL     1       1.602   3.798 -24.961  0.00  0.00    -0.506 OA
ATOM     28  H   UNL     1       2.526   3.858 -25.104  0.00  0.00    +0.292 HD
ENDBRANCH   6  27
BRANCH   5  29
ATOM     29  C   UNL     1      -0.917   3.941 -24.332  0.00  0.00    +0.069 C 
BRANCH  29  30
ATOM     30  C   UNL     1      -1.524   3.456 -25.374  0.00  0.00    -0.023 C 
ATOM     31  C   UNL     1      -2.765   3.770 -25.607  0.00  0.00    -0.079 C 
ATOM     32  C   UNL     1      -3.397   4.567 -24.798  0.00  0.00    +0.038 C 
ATOM     33  C   UNL     1      -3.372   3.285 -26.649  0.00  0.00    +0.038 C 
ENDBRANCH  29  30
ENDBRANCH   5  29
TORSDOF 11
ENDMDL
MODEL 7
REMARK VINA RESULT:    -7.763      1.413      7.768
REMARK INTER + INTRA:         -11.871
REMARK INTER:                 -12.123
REMARK INTRA:                   0.252
REMARK UNBOUND:                 0.657
REMARK  Name = ZINC000008382291
REMARK  18 active torsions:
REMARK  status: ('A' for Active; 'I' for Inactive)
REMARK    1  A    between atoms: C_1  and  O_2
REMARK    2  A    between atoms: O_2  and  C_3
REMARK    3  A    between atoms: C_5  and  O_6
REMARK    4  A    between atoms: O_6  and  C_7
REMARK    5  A    between atoms: C_8  and  C_9
REMARK    6  A    between atoms: C_10  and  C_11
REMARK    7  A    between atoms: C_11  and  C_13
REMARK    8  A    between atoms: C_14  and  O_15
REMARK    9  A    between atoms: O_15  and  C_16
REMARK   10  A    between atoms: C_18  and  O_19
REMARK   11  A    between atoms: O_19  and  C_20
REMARK   12  A    between atoms: C_21  and  C_22
REMARK   13  A    between atoms: C_22  and  C_23
REMARK   14  A    between atoms: C_24  and  C_25
REMARK   15  A    between atoms: C_24  and  C_26
REMARK   16  A    between atoms: C_27  and  O_28
REMARK   17  A    between atoms: C_29  and  O_30
REMARK   18  A    between atoms: O_30  and  C_31
REMARK                            x       y       z     vdW  Elec       q    Type
REMARK                         _______ _______ _______ _____ _____    ______ ____
ROOT
ATOM      1  C   UNL     1       2.464   4.001 -23.888  0.00  0.00    +0.105 A 
ATOM      2  C   UNL     1       3.147   4.942 -23.307  0.00  0.00    +0.138 A 
ATOM      3  C   UNL     1       4.287   4.666 -22.747  0.00  0.00    +0.092 A 
ATOM      4  C   UNL     1       4.745   3.449 -22.768  0.00  0.00    +0.131 A 
ATOM      5  C   UNL     1       4.062   2.508 -23.350  0.00  0.00    +0.040 A 
ATOM      6  C   UNL     1       2.921   2.784 -23.909  0.00  0.00    +0.138 A 
ENDROOT
BRANCH   1   7
ATOM      7  C   UNL     1       1.324   4.277 -24.448  0.00  0.00    +0.193 C 
ATOM      8  O   UNL     1       1.281   4.628 -25.699  0.00  0.00    -0.287 OA
BRANCH   7  10
ATOM      9  C   UNL     1      -0.691   3.339 -24.083  0.00  0.00    +0.019 C 
ATOM     10  C   UNL     1       0.225   4.201 -23.756  0.00  0.00    +0.052 C 
BRANCH   9  14
ATOM     11  C   UNL     1      -3.984   3.114 -22.004  0.00  0.00    +0.127 A 
ATOM     12  C   UNL     1      -4.015   3.559 -23.226  0.00  0.00    +0.092 A 
ATOM     13  C   UNL     1      -2.917   3.634 -23.919  0.00  0.00    +0.134 A 
ATOM     14  C   UNL     1      -1.789   3.264 -23.390  0.00  0.00    +0.059 A 
ATOM     15  C   UNL     1      -1.758   2.819 -22.169  0.00  0.00    +0.134 A 
ATOM     16  C   UNL     1      -2.855   2.744 -21.476  0.00  0.00    +0.092 A 
BRANCH  15  17
ATOM     17  O   UNL     1      -0.629   2.449 -21.641  0.00  0.00    -0.494 OA
ATOM     18  C   UNL     1      -0.354   1.186 -21.512  0.00  0.00    +0.277 C 
ENDBRANCH  15  17
BRANCH  13  19
ATOM     19  O   UNL     1      -2.948   4.078 -25.139  0.00  0.00    -0.494 OA
ATOM     20  C   UNL     1      -3.994   3.868 -25.883  0.00  0.00    +0.277 C 
ENDBRANCH  13  19
BRANCH  11  22
ATOM     21  C   UNL     1      -6.230   2.999 -21.917  0.00  0.00    +0.277 C 
ATOM     22  O   UNL     1      -5.081   3.039 -21.312  0.00  0.00    -0.495 OA
ENDBRANCH  11  22
ENDBRANCH   9  14
ENDBRANCH   7  10
ENDBRANCH   1   7
BRANCH   4  23
ATOM     23  O   UNL     1       5.885   3.173 -22.209  0.00  0.00    -0.495 OA
ATOM     24  C   UNL     1       6.803   4.089 -22.116  0.00  0.00    +0.277 C 
ENDBRANCH   4  23
BRANCH   2  25
ATOM     25  O   UNL     1       2.691   6.159 -23.286  0.00  0.00    -0.494 OA
ATOM     26  C   UNL     1       3.277   7.059 -22.554  0.00  0.00    +0.277 C 
ENDBRANCH   2  25
BRANCH   6  27
ATOM     27  O   UNL     1       2.238   1.842 -24.491  0.00  0.00    -0.506 OA
ATOM     28  H   UNL     1       2.674   1.076 -24.809  0.00  0.00    +0.292 HD
ENDBRANCH   6  27
BRANCH   5  29
ATOM     29  C   UNL     1       4.519   1.291 -23.371  0.00  0.00    +0.069 C 
BRANCH  29  30
ATOM     30  C   UNL     1       5.192   0.832 -22.357  0.00  0.00    -0.023 C 
ATOM     31  C   UNL     1       4.564   0.360 -21.322  0.00  0.00    -0.079 C 
ATOM     32  C   UNL     1       3.264   0.347 -21.299  0.00  0.00    +0.038 C 
ATOM     33  C   UNL     1       5.237  -0.099 -20.308  0.00  0.00    +0.038 C 
ENDBRANCH  29  30
ENDBRANCH   5  29
TORSDOF 11
ENDMDL
MODEL 8
REMARK VINA RESULT:    -7.754      1.839      8.008
REMARK INTER + INTRA:         -11.857
REMARK INTER:                 -11.345
REMARK INTRA:                  -0.512
REMARK UNBOUND:                 0.657
REMARK  Name = ZINC000008382291
REMARK  18 active torsions:
REMARK  status: ('A' for Active; 'I' for Inactive)
REMARK    1  A    between atoms: C_1  and  O_2
REMARK    2  A    between atoms: O_2  and  C_3
REMARK    3  A    between atoms: C_5  and  O_6
REMARK    4  A    between atoms: O_6  and  C_7
REMARK    5  A    between atoms: C_8  and  C_9
REMARK    6  A    between atoms: C_10  and  C_11
REMARK    7  A    between atoms: C_11  and  C_13
REMARK    8  A    between atoms: C_14  and  O_15
REMARK    9  A    between atoms: O_15  and  C_16
REMARK   10  A    between atoms: C_18  and  O_19
REMARK   11  A    between atoms: O_19  and  C_20
REMARK   12  A    between atoms: C_21  and  C_22
REMARK   13  A    between atoms: C_22  and  C_23
REMARK   14  A    between atoms: C_24  and  C_25
REMARK   15  A    between atoms: C_24  and  C_26
REMARK   16  A    between atoms: C_27  and  O_28
REMARK   17  A    between atoms: C_29  and  O_30
REMARK   18  A    between atoms: O_30  and  C_31
REMARK                            x       y       z     vdW  Elec       q    Type
REMARK                         _______ _______ _______ _____ _____    ______ ____
ROOT
ATOM      1  C   UNL     1       4.780   3.768 -22.930  0.00  0.00    +0.105 A 
ATOM      2  C   UNL     1       5.757   3.038 -22.479  0.00  0.00    +0.138 A 
ATOM      3  C   UNL     1       6.769   3.601 -21.889  0.00  0.00    +0.092 A 
ATOM      4  C   UNL     1       6.805   4.893 -21.750  0.00  0.00    +0.131 A 
ATOM      5  C   UNL     1       5.829   5.623 -22.201  0.00  0.00    +0.040 A 
ATOM      6  C   UNL     1       4.816   5.060 -22.791  0.00  0.00    +0.138 A 
ENDROOT
BRANCH   1   7
ATOM      7  C   UNL     1       3.767   3.205 -23.520  0.00  0.00    +0.193 C 
ATOM      8  O   UNL     1       3.927   2.622 -24.671  0.00  0.00    -0.287 OA
BRANCH   7  10
ATOM      9  C   UNL     1       1.655   2.436 -23.387  0.00  0.00    +0.019 C 
ATOM     10  C   UNL     1       2.595   3.225 -22.958  0.00  0.00    +0.052 C 
BRANCH   9  14
ATOM     11  C   UNL     1      -1.862   2.500 -21.700  0.00  0.00    +0.127 A 
ATOM     12  C   UNL     1      -0.903   1.790 -21.180  0.00  0.00    +0.092 A 
ATOM     13  C   UNL     1       0.268   1.769 -21.742  0.00  0.00    +0.134 A 
ATOM     14  C   UNL     1       0.482   2.457 -22.824  0.00  0.00    +0.059 A 
ATOM     15  C   UNL     1      -0.475   3.167 -23.344  0.00  0.00    +0.134 A 
ATOM     16  C   UNL     1      -1.647   3.188 -22.782  0.00  0.00    +0.092 A 
BRANCH  15  17
ATOM     17  O   UNL     1      -0.260   3.855 -24.426  0.00  0.00    -0.494 OA
ATOM     18  C   UNL     1      -0.974   3.635 -25.489  0.00  0.00    +0.277 C 
ENDBRANCH  15  17
BRANCH  13  19
ATOM     19  O   UNL     1       1.225   1.060 -21.223  0.00  0.00    -0.494 OA
ATOM     20  C   UNL     1       1.695   1.360 -20.048  0.00  0.00    +0.277 C 
ENDBRANCH  13  19
BRANCH  11  22
ATOM     21  C   UNL     1      -3.399   3.551 -20.436  0.00  0.00    +0.277 C 
ATOM     22  O   UNL     1      -3.033   2.521 -21.138  0.00  0.00    -0.495 OA
ENDBRANCH  11  22
ENDBRANCH   9  14
ENDBRANCH   7  10
ENDBRANCH   1   7
BRANCH   4  23
ATOM     23  O   UNL     1       7.818   5.456 -21.160  0.00  0.00    -0.495 OA
ATOM     24  C   UNL     1       8.109   5.147 -19.932  0.00  0.00    +0.277 C 
ENDBRANCH   4  23
BRANCH   2  25
ATOM     25  O   UNL     1       5.721   1.746 -22.617  0.00  0.00    -0.494 OA
ATOM     26  C   UNL     1       5.343   0.997 -21.624  0.00  0.00    +0.277 C 
ENDBRANCH   2  25
BRANCH   6  27
ATOM     27  O   UNL     1       3.839   5.790 -23.243  0.00  0.00    -0.506 OA
ATOM     28  H   UNL     1       2.982   5.703 -22.876  0.00  0.00    +0.292 HD
ENDBRANCH   6  27
BRANCH   5  29
ATOM     29  C   UNL     1       5.865   6.915 -22.063  0.00  0.00    +0.069 C 
BRANCH  29  30
ATOM     30  C   UNL     1       5.359   7.469 -21.001  0.00  0.00    -0.023 C 
ATOM     31  C   UNL     1       4.604   8.521 -21.115  0.00  0.00    -0.079 C 
ATOM     32  C   UNL     1       4.356   9.019 -22.290  0.00  0.00    +0.038 C 
ATOM     33  C   UNL     1       4.099   9.075 -20.054  0.00  0.00    +0.038 C 
ENDBRANCH  29  30
ENDBRANCH   5  29
TORSDOF 11
ENDMDL
MODEL 9
REMARK VINA RESULT:    -7.568      1.407      7.934
REMARK INTER + INTRA:         -11.557
REMARK INTER:                 -12.214
REMARK INTRA:                   0.657
REMARK UNBOUND:                 0.657
REMARK  Name = ZINC000008382291
REMARK  18 active torsions:
REMARK  status: ('A' for Active; 'I' for Inactive)
REMARK    1  A    between atoms: C_1  and  O_2
REMARK    2  A    between atoms: O_2  and  C_3
REMARK    3  A    between atoms: C_5  and  O_6
REMARK    4  A    between atoms: O_6  and  C_7
REMARK    5  A    between atoms: C_8  and  C_9
REMARK    6  A    between atoms: C_10  and  C_11
REMARK    7  A    between atoms: C_11  and  C_13
REMARK    8  A    between atoms: C_14  and  O_15
REMARK    9  A    between atoms: O_15  and  C_16
REMARK   10  A    between atoms: C_18  and  O_19
REMARK   11  A    between atoms: O_19  and  C_20
REMARK   12  A    between atoms: C_21  and  C_22
REMARK   13  A    between atoms: C_22  and  C_23
REMARK   14  A    between atoms: C_24  and  C_25
REMARK   15  A    between atoms: C_24  and  C_26
REMARK   16  A    between atoms: C_27  and  O_28
REMARK   17  A    between atoms: C_29  and  O_30
REMARK   18  A    between atoms: O_30  and  C_31
REMARK                            x       y       z     vdW  Elec       q    Type
REMARK                         _______ _______ _______ _____ _____    ______ ____
ROOT
ATOM      1  C   UNL     1       2.411   3.897 -24.029  0.00  0.00    +0.105 A 
ATOM      2  C   UNL     1       3.019   4.859 -23.401  0.00  0.00    +0.138 A 
ATOM      3  C   UNL     1       4.141   4.626 -22.787  0.00  0.00    +0.092 A 
ATOM      4  C   UNL     1       4.654   3.431 -22.800  0.00  0.00    +0.131 A 
ATOM      5  C   UNL     1       4.045   2.469 -23.428  0.00  0.00    +0.040 A 
ATOM      6  C   UNL     1       2.923   2.702 -24.042  0.00  0.00    +0.138 A 
ENDROOT
BRANCH   1   7
ATOM      7  C   UNL     1       1.289   4.130 -24.644  0.00  0.00    +0.193 C 
ATOM      8  O   UNL     1       1.281   4.342 -25.926  0.00  0.00    -0.287 OA
BRANCH   7  10
ATOM      9  C   UNL     1      -0.633   3.133 -24.023  0.00  0.00    +0.019 C 
ATOM     10  C   UNL     1       0.174   4.151 -23.974  0.00  0.00    +0.052 C 
BRANCH   9  14
ATOM     11  C   UNL     1      -3.977   3.200 -22.016  0.00  0.00    +0.127 A 
ATOM     12  C   UNL     1      -2.884   2.783 -21.446  0.00  0.00    +0.092 A 
ATOM     13  C   UNL     1      -1.770   2.761 -22.115  0.00  0.00    +0.134 A 
ATOM     14  C   UNL     1      -1.748   3.155 -23.353  0.00  0.00    +0.059 A 
ATOM     15  C   UNL     1      -2.839   3.572 -23.923  0.00  0.00    +0.134 A 
ATOM     16  C   UNL     1      -3.953   3.594 -23.255  0.00  0.00    +0.092 A 
BRANCH  15  17
ATOM     17  O   UNL     1      -2.816   3.966 -25.162  0.00  0.00    -0.494 OA
ATOM     18  C   UNL     1      -3.391   3.252 -26.083  0.00  0.00    +0.277 C 
ENDBRANCH  15  17
BRANCH  13  19
ATOM     19  O   UNL     1      -0.679   2.345 -21.546  0.00  0.00    -0.494 OA
ATOM     20  C   UNL     1      -0.269   1.126 -21.737  0.00  0.00    +0.277 C 
ENDBRANCH  13  19
BRANCH  11  22
ATOM     21  C   UNL     1      -6.220   3.024 -21.959  0.00  0.00    +0.277 C 
ATOM     22  O   UNL     1      -5.091   3.223 -21.347  0.00  0.00    -0.495 OA
ENDBRANCH  11  22
ENDBRANCH   9  14
ENDBRANCH   7  10
ENDBRANCH   1   7
BRANCH   4  23
ATOM     23  O   UNL     1       5.776   3.198 -22.186  0.00  0.00    -0.495 OA
ATOM     24  C   UNL     1       6.755   4.048 -22.275  0.00  0.00    +0.277 C 
ENDBRANCH   4  23
BRANCH   2  25
ATOM     25  O   UNL     1       2.507   6.053 -23.388  0.00  0.00    -0.494 OA
ATOM     26  C   UNL     1       3.044   6.981 -22.653  0.00  0.00    +0.277 C 
ENDBRANCH   2  25
BRANCH   6  27
ATOM     27  O   UNL     1       2.315   1.740 -24.670  0.00  0.00    -0.506 OA
ATOM     28  H   UNL     1       1.380   1.677 -24.638  0.00  0.00    +0.292 HD
ENDBRANCH   6  27
BRANCH   5  29
ATOM     29  C   UNL     1       4.558   1.275 -23.441  0.00  0.00    +0.069 C 
BRANCH  29  30
ATOM     30  C   UNL     1       5.214   0.838 -22.407  0.00  0.00    -0.023 C 
ATOM     31  C   UNL     1       4.569   0.374 -21.378  0.00  0.00    -0.079 C 
ATOM     32  C   UNL     1       3.270   0.348 -21.382  0.00  0.00    +0.038 C 
ATOM     33  C   UNL     1       5.225  -0.062 -20.344  0.00  0.00    +0.038 C 
ENDBRANCH  29  30
ENDBRANCH   5  29
TORSDOF 11
ENDMDL
