MODEL 1
REMARK VINA RESULT:   -13.482      0.000      0.000
REMARK INTER + INTRA:         -11.972
REMARK INTER:                 -12.782
REMARK INTRA:                   0.810
REMARK UNBOUND:                 3.086
REMARK  Name = ZINC000013408755
REMARK  5 active torsions:
REMARK  status: ('A' for Active; 'I' for Inactive)
REMARK    1  A    between atoms: C_1  and  C_2
REMARK    2  A    between atoms: C_2  and  O_4
REMARK    3  A    between atoms: O_4  and  C_5
REMARK    4  A    between atoms: C_18  and  C_19
REMARK    5  A    between atoms: C_23  and  C_24
REMARK                            x       y       z     vdW  Elec       q    Type
REMARK                         _______ _______ _______ _____ _____    ______ ____
ROOT
ATOM      1  C   UNL     1       1.968   3.117 -23.678  0.00  0.00    +0.183 C 
ATOM      2  C   UNL     1       1.866   3.778 -24.794  0.00  0.00    +0.045 C 
ATOM      3  C   UNL     1       0.608   4.035 -24.996  0.00  0.00    +0.008 C 
ATOM      4  C   UNL     1      -0.068   3.534 -24.005  0.00  0.00    +0.002 C 
ATOM      5  C   UNL     1      -1.341   3.521 -23.740  0.00  0.00    -0.003 C 
ATOM      6  C   UNL     1      -2.181   4.088 -24.554  0.00  0.00    +0.008 C 
ATOM      7  C   UNL     1      -3.453   4.075 -24.289  0.00  0.00    +0.032 C 
ATOM      8  C   UNL     1      -3.886   3.495 -23.209  0.00  0.00    -0.060 C 
ATOM      9  C   UNL     1      -5.159   3.481 -22.943  0.00  0.00    +0.046 C 
ATOM     10  C   UNL     1      -5.592   2.902 -21.864  0.00  0.00    +0.156 C 
ATOM     11  C   UNL     1      -4.752   2.335 -21.050  0.00  0.00    +0.080 C 
ATOM     12  C   UNL     1      -3.479   2.348 -21.315  0.00  0.00    +0.019 C 
ATOM     13  O   UNL     1      -6.864   2.889 -21.599  0.00  0.00    -0.293 OA
ATOM     14  C   UNL     1      -3.046   2.928 -22.395  0.00  0.00    -0.007 C 
ATOM     15  C   UNL     1      -2.206   2.360 -21.580  0.00  0.00    +0.016 C 
ATOM     16  C   UNL     1      -1.774   2.941 -22.660  0.00  0.00    +0.002 C 
ATOM     17  C   UNL     1      -0.934   2.373 -21.845  0.00  0.00    +0.005 C 
ATOM     18  C   UNL     1       0.338   2.386 -22.111  0.00  0.00    +0.011 C 
ATOM     19  C   UNL     1       0.771   2.967 -23.191  0.00  0.00    +0.008 C 
ATOM     20  C   UNL     1       1.710   2.439 -22.462  0.00  0.00    +0.015 C 
ENDROOT
BRANCH   1  21
ATOM     21  O   UNL     1       3.070   2.684 -23.143  0.00  0.00    -0.461 OA
BRANCH  21  23
ATOM     22  C   UNL     1       5.229   3.026 -23.684  0.00  0.00    +0.136 C 
ATOM     23  C   UNL     1       4.127   3.440 -23.131  0.00  0.00    +0.304 C 
ATOM     24  O   UNL     1       4.083   4.610 -22.566  0.00  0.00    -0.251 OA
ENDBRANCH  21  23
ENDBRANCH   1  21
TORSDOF 2
ENDMDL
MODEL 2
REMARK VINA RESULT:   -13.302      1.125      1.353
REMARK INTER + INTRA:         -11.770
REMARK INTER:                 -12.429
REMARK INTRA:                   0.658
REMARK UNBOUND:                 3.086
REMARK  Name = ZINC000013408755
REMARK  5 active torsions:
REMARK  status: ('A' for Active; 'I' for Inactive)
REMARK    1  A    between atoms: C_1  and  C_2
REMARK    2  A    between atoms: C_2  and  O_4
REMARK    3  A    between atoms: O_4  and  C_5
REMARK    4  A    between atoms: C_18  and  C_19
REMARK    5  A    between atoms: C_23  and  C_24
REMARK                            x       y       z     vdW  Elec       q    Type
REMARK                         _______ _______ _______ _____ _____    ______ ____
ROOT
ATOM      1  C   UNL     1       2.621   2.062 -22.566  0.00  0.00    +0.183 C 
ATOM      2  C   UNL     1       2.869   2.723 -23.659  0.00  0.00    +0.045 C 
ATOM      3  C   UNL     1       1.746   3.206 -24.100  0.00  0.00    +0.008 C 
ATOM      4  C   UNL     1       0.803   2.845 -23.280  0.00  0.00    +0.002 C 
ATOM      5  C   UNL     1      -0.478   3.069 -23.274  0.00  0.00    -0.003 C 
ATOM      6  C   UNL     1      -1.018   3.776 -24.221  0.00  0.00    +0.008 C 
ATOM      7  C   UNL     1      -2.299   4.000 -24.216  0.00  0.00    +0.032 C 
ATOM      8  C   UNL     1      -3.038   3.517 -23.262  0.00  0.00    -0.060 C 
ATOM      9  C   UNL     1      -4.319   3.740 -23.256  0.00  0.00    +0.046 C 
ATOM     10  C   UNL     1      -5.059   3.258 -22.303  0.00  0.00    +0.156 C 
ATOM     11  C   UNL     1      -4.519   2.551 -21.356  0.00  0.00    +0.080 C 
ATOM     12  C   UNL     1      -3.238   2.327 -21.362  0.00  0.00    +0.019 C 
ATOM     13  O   UNL     1      -6.340   3.482 -22.298  0.00  0.00    -0.293 OA
ATOM     14  C   UNL     1      -2.498   2.810 -22.315  0.00  0.00    -0.007 C 
ATOM     15  C   UNL     1      -1.957   2.103 -21.367  0.00  0.00    +0.016 C 
ATOM     16  C   UNL     1      -1.217   2.586 -22.320  0.00  0.00    +0.002 C 
ATOM     17  C   UNL     1      -0.677   1.879 -21.373  0.00  0.00    +0.005 C 
ATOM     18  C   UNL     1       0.603   1.655 -21.378  0.00  0.00    +0.011 C 
ATOM     19  C   UNL     1       1.344   2.138 -22.332  0.00  0.00    +0.008 C 
ATOM     20  C   UNL     1       2.004   1.451 -21.448  0.00  0.00    +0.015 C 
ENDROOT
BRANCH   1  21
ATOM     21  O   UNL     1       3.495   1.436 -21.836  0.00  0.00    -0.461 OA
BRANCH  21  23
ATOM     22  C   UNL     1       5.660   1.137 -22.379  0.00  0.00    +0.136 C 
ATOM     23  C   UNL     1       4.729   1.843 -21.808  0.00  0.00    +0.304 C 
ATOM     24  O   UNL     1       5.033   2.957 -21.211  0.00  0.00    -0.251 OA
ENDBRANCH  21  23
ENDBRANCH   1  21
TORSDOF 2
ENDMDL
MODEL 3
REMARK VINA RESULT:   -12.797      1.572      6.635
REMARK INTER + INTRA:         -11.207
REMARK INTER:                 -12.639
REMARK INTRA:                   1.431
REMARK UNBOUND:                 3.086
REMARK  Name = ZINC000013408755
REMARK  5 active torsions:
REMARK  status: ('A' for Active; 'I' for Inactive)
REMARK    1  A    between atoms: C_1  and  C_2
REMARK    2  A    between atoms: C_2  and  O_4
REMARK    3  A    between atoms: O_4  and  C_5
REMARK    4  A    between atoms: C_18  and  C_19
REMARK    5  A    between atoms: C_23  and  C_24
REMARK                            x       y       z     vdW  Elec       q    Type
REMARK                         _______ _______ _______ _____ _____    ______ ____
ROOT
ATOM      1  C   UNL     1      -3.105   3.277 -22.709  0.00  0.00    +0.183 C 
ATOM      2  C   UNL     1      -3.091   3.743 -23.923  0.00  0.00    +0.045 C 
ATOM      3  C   UNL     1      -1.894   3.579 -24.402  0.00  0.00    +0.008 C 
ATOM      4  C   UNL     1      -1.168   3.011 -23.485  0.00  0.00    +0.002 C 
ATOM      5  C   UNL     1       0.078   2.639 -23.467  0.00  0.00    -0.003 C 
ATOM      6  C   UNL     1       0.827   2.826 -24.514  0.00  0.00    +0.008 C 
ATOM      7  C   UNL     1       2.072   2.455 -24.496  0.00  0.00    +0.032 C 
ATOM      8  C   UNL     1       2.569   1.897 -23.433  0.00  0.00    -0.060 C 
ATOM      9  C   UNL     1       3.815   1.525 -23.415  0.00  0.00    +0.046 C 
ATOM     10  C   UNL     1       4.313   0.968 -22.352  0.00  0.00    +0.156 C 
ATOM     11  C   UNL     1       3.564   0.782 -21.305  0.00  0.00    +0.080 C 
ATOM     12  C   UNL     1       2.318   1.153 -21.323  0.00  0.00    +0.019 C 
ATOM     13  O   UNL     1       5.558   0.597 -22.334  0.00  0.00    -0.293 OA
ATOM     14  C   UNL     1       1.820   1.711 -22.386  0.00  0.00    -0.007 C 
ATOM     15  C   UNL     1       1.072   1.524 -21.340  0.00  0.00    +0.016 C 
ATOM     16  C   UNL     1       0.575   2.082 -22.403  0.00  0.00    +0.002 C 
ATOM     17  C   UNL     1      -0.173   1.896 -21.357  0.00  0.00    +0.005 C 
ATOM     18  C   UNL     1      -1.419   2.267 -21.374  0.00  0.00    +0.011 C 
ATOM     19  C   UNL     1      -1.917   2.825 -22.439  0.00  0.00    +0.008 C 
ATOM     20  C   UNL     1      -2.766   2.696 -21.463  0.00  0.00    +0.015 C 
ENDROOT
BRANCH   1  21
ATOM     21  O   UNL     1      -4.127   3.266 -21.906  0.00  0.00    -0.461 OA
BRANCH  21  23
ATOM     22  C   UNL     1      -6.312   2.736 -21.771  0.00  0.00    +0.136 C 
ATOM     23  C   UNL     1      -5.333   3.326 -22.389  0.00  0.00    +0.304 C 
ATOM     24  O   UNL     1      -5.560   3.978 -23.491  0.00  0.00    -0.251 OA
ENDBRANCH  21  23
ENDBRANCH   1  21
TORSDOF 2
ENDMDL
MODEL 4
REMARK VINA RESULT:   -12.698      1.595      6.955
REMARK INTER + INTRA:         -11.096
REMARK INTER:                 -11.888
REMARK INTRA:                   0.792
REMARK UNBOUND:                 3.086
REMARK  Name = ZINC000013408755
REMARK  5 active torsions:
REMARK  status: ('A' for Active; 'I' for Inactive)
REMARK    1  A    between atoms: C_1  and  C_2
REMARK    2  A    between atoms: C_2  and  O_4
REMARK    3  A    between atoms: O_4  and  C_5
REMARK    4  A    between atoms: C_18  and  C_19
REMARK    5  A    between atoms: C_23  and  C_24
REMARK                            x       y       z     vdW  Elec       q    Type
REMARK                         _______ _______ _______ _____ _____    ______ ____
ROOT
ATOM      1  C   UNL     1      -2.586   3.577 -23.362  0.00  0.00    +0.183 C 
ATOM      2  C   UNL     1      -2.955   2.620 -22.563  0.00  0.00    +0.045 C 
ATOM      3  C   UNL     1      -1.884   2.073 -22.069  0.00  0.00    +0.008 C 
ATOM      4  C   UNL     1      -0.853   2.692 -22.562  0.00  0.00    +0.002 C 
ATOM      5  C   UNL     1       0.426   2.530 -22.387  0.00  0.00    -0.003 C 
ATOM      6  C   UNL     1       0.859   1.601 -21.588  0.00  0.00    +0.008 C 
ATOM      7  C   UNL     1       2.136   1.438 -21.412  0.00  0.00    +0.032 C 
ATOM      8  C   UNL     1       2.980   2.205 -22.036  0.00  0.00    -0.060 C 
ATOM      9  C   UNL     1       4.259   2.043 -21.861  0.00  0.00    +0.046 C 
ATOM     10  C   UNL     1       5.103   2.809 -22.484  0.00  0.00    +0.156 C 
ATOM     11  C   UNL     1       4.670   3.739 -23.282  0.00  0.00    +0.080 C 
ATOM     12  C   UNL     1       3.391   3.901 -23.458  0.00  0.00    +0.019 C 
ATOM     13  O   UNL     1       6.381   2.647 -22.308  0.00  0.00    -0.293 OA
ATOM     14  C   UNL     1       2.547   3.135 -22.835  0.00  0.00    -0.007 C 
ATOM     15  C   UNL     1       2.114   4.064 -23.634  0.00  0.00    +0.016 C 
ATOM     16  C   UNL     1       1.270   3.297 -23.010  0.00  0.00    +0.002 C 
ATOM     17  C   UNL     1       0.836   4.226 -23.809  0.00  0.00    +0.005 C 
ATOM     18  C   UNL     1      -0.441   4.389 -23.985  0.00  0.00    +0.011 C 
ATOM     19  C   UNL     1      -1.286   3.622 -23.361  0.00  0.00    +0.008 C 
ATOM     20  C   UNL     1      -1.846   4.510 -24.128  0.00  0.00    +0.015 C 
ENDROOT
BRANCH   1  21
ATOM     21  O   UNL     1      -3.376   4.353 -24.042  0.00  0.00    -0.461 OA
BRANCH  21  23
ATOM     22  C   UNL     1      -4.711   3.431 -25.603  0.00  0.00    +0.136 C 
ATOM     23  C   UNL     1      -4.546   3.925 -24.412  0.00  0.00    +0.304 C 
ATOM     24  O   UNL     1      -5.552   3.990 -23.591  0.00  0.00    -0.251 OA
ENDBRANCH  21  23
ENDBRANCH   1  21
TORSDOF 2
ENDMDL
MODEL 5
REMARK VINA RESULT:   -12.688      1.101      2.688
REMARK INTER + INTRA:         -11.085
REMARK INTER:                 -11.878
REMARK INTRA:                   0.792
REMARK UNBOUND:                 3.086
REMARK  Name = ZINC000013408755
REMARK  5 active torsions:
REMARK  status: ('A' for Active; 'I' for Inactive)
REMARK    1  A    between atoms: C_1  and  C_2
REMARK    2  A    between atoms: C_2  and  O_4
REMARK    3  A    between atoms: O_4  and  C_5
REMARK    4  A    between atoms: C_18  and  C_19
REMARK    5  A    between atoms: C_23  and  C_24
REMARK                            x       y       z     vdW  Elec       q    Type
REMARK                         _______ _______ _______ _____ _____    ______ ____
ROOT
ATOM      1  C   UNL     1       3.401   2.850 -22.889  0.00  0.00    +0.183 C 
ATOM      2  C   UNL     1       3.418   2.047 -21.867  0.00  0.00    +0.045 C 
ATOM      3  C   UNL     1       2.188   1.820 -21.513  0.00  0.00    +0.008 C 
ATOM      4  C   UNL     1       1.410   2.483 -22.317  0.00  0.00    +0.002 C 
ATOM      5  C   UNL     1       0.116   2.590 -22.384  0.00  0.00    -0.003 C 
ATOM      6  C   UNL     1      -0.634   1.953 -21.534  0.00  0.00    +0.008 C 
ATOM      7  C   UNL     1      -1.927   2.060 -21.601  0.00  0.00    +0.032 C 
ATOM      8  C   UNL     1      -2.471   2.803 -22.518  0.00  0.00    -0.060 C 
ATOM      9  C   UNL     1      -3.766   2.909 -22.586  0.00  0.00    +0.046 C 
ATOM     10  C   UNL     1      -4.310   3.652 -23.502  0.00  0.00    +0.156 C 
ATOM     11  C   UNL     1      -3.561   4.289 -24.352  0.00  0.00    +0.080 C 
ATOM     12  C   UNL     1      -2.267   4.182 -24.285  0.00  0.00    +0.019 C 
ATOM     13  O   UNL     1      -5.604   3.758 -23.569  0.00  0.00    -0.293 OA
ATOM     14  C   UNL     1      -1.722   3.439 -23.368  0.00  0.00    -0.007 C 
ATOM     15  C   UNL     1      -0.972   4.076 -24.219  0.00  0.00    +0.016 C 
ATOM     16  C   UNL     1      -0.428   3.333 -23.301  0.00  0.00    +0.002 C 
ATOM     17  C   UNL     1       0.321   3.970 -24.152  0.00  0.00    +0.005 C 
ATOM     18  C   UNL     1       1.615   3.863 -24.084  0.00  0.00    +0.011 C 
ATOM     19  C   UNL     1       2.160   3.120 -23.167  0.00  0.00    +0.008 C 
ATOM     20  C   UNL     1       3.016   3.702 -23.953  0.00  0.00    +0.015 C 
ENDROOT
BRANCH   1  21
ATOM     21  O   UNL     1       4.441   3.304 -23.522  0.00  0.00    -0.461 OA
BRANCH  21  23
ATOM     22  C   UNL     1       6.596   2.995 -22.947  0.00  0.00    +0.136 C 
ATOM     23  C   UNL     1       5.494   3.678 -22.857  0.00  0.00    +0.304 C 
ATOM     24  O   UNL     1       5.444   4.736 -22.102  0.00  0.00    -0.251 OA
ENDBRANCH  21  23
ENDBRANCH   1  21
TORSDOF 2
ENDMDL
MODEL 6
REMARK VINA RESULT:   -11.155      2.163      4.381
REMARK INTER + INTRA:          -9.373
REMARK INTER:                 -10.522
REMARK INTRA:                   1.149
REMARK UNBOUND:                 3.086
REMARK  Name = ZINC000013408755
REMARK  5 active torsions:
REMARK  status: ('A' for Active; 'I' for Inactive)
REMARK    1  A    between atoms: C_1  and  C_2
REMARK    2  A    between atoms: C_2  and  O_4
REMARK    3  A    between atoms: O_4  and  C_5
REMARK    4  A    between atoms: C_18  and  C_19
REMARK    5  A    between atoms: C_23  and  C_24
REMARK                            x       y       z     vdW  Elec       q    Type
REMARK                         _______ _______ _______ _____ _____    ______ ____
ROOT
ATOM      1  C   UNL     1       5.647   3.386 -22.179  0.00  0.00    +0.183 C 
ATOM      2  C   UNL     1       5.723   2.284 -21.494  0.00  0.00    +0.045 C 
ATOM      3  C   UNL     1       4.529   1.775 -21.415  0.00  0.00    +0.008 C 
ATOM      4  C   UNL     1       3.715   2.563 -22.052  0.00  0.00    +0.002 C 
ATOM      5  C   UNL     1       2.433   2.503 -22.263  0.00  0.00    -0.003 C 
ATOM      6  C   UNL     1       1.743   1.508 -21.791  0.00  0.00    +0.008 C 
ATOM      7  C   UNL     1       0.462   1.447 -22.002  0.00  0.00    +0.032 C 
ATOM      8  C   UNL     1      -0.129   2.382 -22.684  0.00  0.00    -0.060 C 
ATOM      9  C   UNL     1      -1.411   2.322 -22.895  0.00  0.00    +0.046 C 
ATOM     10  C   UNL     1      -2.003   3.256 -23.578  0.00  0.00    +0.156 C 
ATOM     11  C   UNL     1      -1.313   4.252 -24.050  0.00  0.00    +0.080 C 
ATOM     12  C   UNL     1      -0.031   4.312 -23.839  0.00  0.00    +0.019 C 
ATOM     13  O   UNL     1      -3.284   3.196 -23.788  0.00  0.00    -0.293 OA
ATOM     14  C   UNL     1       0.561   3.378 -23.156  0.00  0.00    -0.007 C 
ATOM     15  C   UNL     1       1.251   4.373 -23.628  0.00  0.00    +0.016 C 
ATOM     16  C   UNL     1       1.842   3.438 -22.946  0.00  0.00    +0.002 C 
ATOM     17  C   UNL     1       2.532   4.434 -23.418  0.00  0.00    +0.005 C 
ATOM     18  C   UNL     1       3.813   4.494 -23.207  0.00  0.00    +0.011 C 
ATOM     19  C   UNL     1       4.405   3.559 -22.524  0.00  0.00    +0.008 C 
ATOM     20  C   UNL     1       5.204   4.496 -22.939  0.00  0.00    +0.015 C 
ENDROOT
BRANCH   1  21
ATOM     21  O   UNL     1       6.636   4.177 -22.469  0.00  0.00    -0.461 OA
BRANCH  21  23
ATOM     22  C   UNL     1       8.702   4.874 -21.903  0.00  0.00    +0.136 C 
ATOM     23  C   UNL     1       7.511   4.484 -21.557  0.00  0.00    +0.304 C 
ATOM     24  O   UNL     1       7.195   4.400 -20.299  0.00  0.00    -0.251 OA
ENDBRANCH  21  23
ENDBRANCH   1  21
TORSDOF 2
ENDMDL
