MODEL 1
REMARK VINA RESULT:    -9.441      0.000      0.000
REMARK INTER + INTRA:         -14.655
REMARK INTER:                 -13.728
REMARK INTRA:                  -0.928
REMARK UNBOUND:                -1.351
REMARK  Name = CCCOc1ccc(C(=O)OC[C@@H]2CCC[N@@+]3(C)CCCC[C@H]23)cc1                 ZINC000252441459
REMARK  9 active torsions:
REMARK  status: ('A' for Active; 'I' for Inactive)
REMARK    1  A    between atoms: C_1  and  C_2
REMARK    2  A    between atoms: C_2  and  C_3
REMARK    3  A    between atoms: C_3  and  O_4
REMARK    4  A    between atoms: O_4  and  C_5
REMARK    5  A    between atoms: C_8  and  C_9
REMARK    6  A    between atoms: C_9  and  O_11
REMARK    7  A    between atoms: O_11  and  C_12
REMARK    8  A    between atoms: C_12  and  C_13
REMARK    9  A    between atoms: N_17  and  C_18
REMARK                            x       y       z     vdW  Elec       q    Type
REMARK                         _______ _______ _______ _____ _____    ______ ____
ROOT
ATOM      1  O   UNL     1      -0.713   3.378 -25.038  0.00  0.00    -0.461 OA
ENDROOT
BRANCH   1   2
ATOM      2  C   UNL     1       0.587   3.397 -25.018  0.00  0.00    +0.339 C 
ATOM      3  O   UNL     1       1.236   4.263 -25.736  0.00  0.00    -0.245 OA
BRANCH   2   7
ATOM      4  C   UNL     1       2.536   0.852 -22.795  0.00  0.00    +0.121 A 
ATOM      5  C   UNL     1       2.945   1.107 -24.003  0.00  0.00    +0.046 A 
ATOM      6  C   UNL     1       2.295   1.955 -24.743  0.00  0.00    +0.018 A 
ATOM      7  C   UNL     1       1.237   2.548 -24.277  0.00  0.00    +0.059 A 
ATOM      8  C   UNL     1       0.828   2.293 -23.069  0.00  0.00    +0.018 A 
ATOM      9  C   UNL     1       1.477   1.445 -22.329  0.00  0.00    +0.046 A 
BRANCH   4  10
ATOM     10  O   UNL     1       3.186   0.004 -22.054  0.00  0.00    -0.492 OA
BRANCH  10  11
ATOM     11  C   UNL     1       3.768   0.406 -20.964  0.00  0.00    +0.229 C 
BRANCH  11  13
ATOM     12  C   UNL     1       5.183   2.158 -20.987  0.00  0.00    +0.007 C 
ATOM     13  C   UNL     1       4.980   0.874 -21.010  0.00  0.00    +0.038 C 
ENDBRANCH  11  13
ENDBRANCH  10  11
ENDBRANCH   4  10
ENDBRANCH   2   7
ENDBRANCH   1   2
BRANCH   1  14
ATOM     14  C   UNL     1      -1.386   4.296 -24.409  0.00  0.00    +0.241 C 
BRANCH  14  15
ATOM     15  C   UNL     1      -2.654   4.128 -24.178  0.00  0.00    +0.075 C 
ATOM     16  C   UNL     1      -3.521   4.343 -25.123  0.00  0.00    +0.017 C 
ATOM     17  C   UNL     1      -4.789   4.176 -24.893  0.00  0.00    +0.051 C 
ATOM     18  C   UNL     1      -5.191   3.793 -23.716  0.00  0.00    +0.133 C 
ATOM     19  N   UNL     1      -4.325   3.578 -22.772  0.00  0.00    +0.244 N 
ATOM     20  C   UNL     1      -4.726   3.196 -21.596  0.00  0.00    +0.133 C 
ATOM     21  C   UNL     1      -3.859   2.981 -20.651  0.00  0.00    +0.051 C 
ATOM     22  C   UNL     1      -2.591   3.149 -20.881  0.00  0.00    +0.011 C 
ATOM     23  C   UNL     1      -2.190   3.531 -22.058  0.00  0.00    +0.055 C 
ATOM     24  C   UNL     1      -5.593   3.411 -22.541  0.00  0.00    +0.192 C 
ATOM     25  C   UNL     1      -3.056   3.746 -23.002  0.00  0.00    +0.072 C 
ENDBRANCH  14  15
ENDBRANCH   1  14
TORSDOF 7
ENDMDL
MODEL 2
REMARK VINA RESULT:    -9.101      1.336      2.523
REMARK INTER + INTRA:         -14.177
REMARK INTER:                 -12.943
REMARK INTRA:                  -1.234
REMARK UNBOUND:                -1.351
REMARK  Name = CCCOc1ccc(C(=O)OC[C@@H]2CCC[N@@+]3(C)CCCC[C@H]23)cc1                 ZINC000252441459
REMARK  9 active torsions:
REMARK  status: ('A' for Active; 'I' for Inactive)
REMARK    1  A    between atoms: C_1  and  C_2
REMARK    2  A    between atoms: C_2  and  C_3
REMARK    3  A    between atoms: C_3  and  O_4
REMARK    4  A    between atoms: O_4  and  C_5
REMARK    5  A    between atoms: C_8  and  C_9
REMARK    6  A    between atoms: C_9  and  O_11
REMARK    7  A    between atoms: O_11  and  C_12
REMARK    8  A    between atoms: C_12  and  C_13
REMARK    9  A    between atoms: N_17  and  C_18
REMARK                            x       y       z     vdW  Elec       q    Type
REMARK                         _______ _______ _______ _____ _____    ______ ____
ROOT
ATOM      1  O   UNL     1       0.046   4.279 -24.319  0.00  0.00    -0.461 OA
ENDROOT
BRANCH   1   2
ATOM      2  C   UNL     1       1.136   4.067 -24.995  0.00  0.00    +0.339 C 
ATOM      3  O   UNL     1       1.181   4.352 -26.262  0.00  0.00    -0.245 OA
BRANCH   2   7
ATOM      4  C   UNL     1       4.271   2.573 -23.219  0.00  0.00    +0.121 A 
ATOM      5  C   UNL     1       3.848   3.761 -22.900  0.00  0.00    +0.046 A 
ATOM      6  C   UNL     1       2.802   4.258 -23.493  0.00  0.00    +0.018 A 
ATOM      7  C   UNL     1       2.181   3.569 -24.403  0.00  0.00    +0.059 A 
ATOM      8  C   UNL     1       2.604   2.382 -24.721  0.00  0.00    +0.018 A 
ATOM      9  C   UNL     1       3.649   1.884 -24.129  0.00  0.00    +0.046 A 
BRANCH   4  10
ATOM     10  O   UNL     1       5.316   2.076 -22.627  0.00  0.00    -0.492 OA
BRANCH  10  11
ATOM     11  C   UNL     1       5.277   0.869 -22.146  0.00  0.00    +0.229 C 
BRANCH  11  13
ATOM     12  C   UNL     1       3.678   0.313 -20.661  0.00  0.00    +0.007 C 
ATOM     13  C   UNL     1       4.902   0.671 -20.918  0.00  0.00    +0.038 C 
ENDBRANCH  11  13
ENDBRANCH  10  11
ENDBRANCH   4  10
ENDBRANCH   2   7
ENDBRANCH   1   2
BRANCH   1  14
ATOM     14  C   UNL     1      -0.956   3.456 -24.427  0.00  0.00    +0.241 C 
BRANCH  14  15
ATOM     15  C   UNL     1      -1.697   3.195 -23.391  0.00  0.00    +0.075 C 
ATOM     16  C   UNL     1      -1.156   2.724 -22.306  0.00  0.00    +0.017 C 
ATOM     17  C   UNL     1      -1.898   2.464 -21.271  0.00  0.00    +0.051 C 
ATOM     18  C   UNL     1      -3.180   2.674 -21.320  0.00  0.00    +0.133 C 
ATOM     19  N   UNL     1      -3.721   3.144 -22.405  0.00  0.00    +0.244 N 
ATOM     20  C   UNL     1      -5.002   3.354 -22.454  0.00  0.00    +0.133 C 
ATOM     21  C   UNL     1      -5.543   3.825 -23.539  0.00  0.00    +0.051 C 
ATOM     22  C   UNL     1      -4.801   4.086 -24.575  0.00  0.00    +0.011 C 
ATOM     23  C   UNL     1      -3.519   3.875 -24.525  0.00  0.00    +0.055 C 
ATOM     24  C   UNL     1      -4.462   2.884 -21.369  0.00  0.00    +0.192 C 
ATOM     25  C   UNL     1      -2.979   3.405 -23.440  0.00  0.00    +0.072 C 
ENDBRANCH  14  15
ENDBRANCH   1  14
TORSDOF 7
ENDMDL
MODEL 3
REMARK VINA RESULT:    -9.046      1.883      2.909
REMARK INTER + INTRA:         -14.099
REMARK INTER:                 -12.966
REMARK INTRA:                  -1.133
REMARK UNBOUND:                -1.351
REMARK  Name = CCCOc1ccc(C(=O)OC[C@@H]2CCC[N@@+]3(C)CCCC[C@H]23)cc1                 ZINC000252441459
REMARK  9 active torsions:
REMARK  status: ('A' for Active; 'I' for Inactive)
REMARK    1  A    between atoms: C_1  and  C_2
REMARK    2  A    between atoms: C_2  and  C_3
REMARK    3  A    between atoms: C_3  and  O_4
REMARK    4  A    between atoms: O_4  and  C_5
REMARK    5  A    between atoms: C_8  and  C_9
REMARK    6  A    between atoms: C_9  and  O_11
REMARK    7  A    between atoms: O_11  and  C_12
REMARK    8  A    between atoms: C_12  and  C_13
REMARK    9  A    between atoms: N_17  and  C_18
REMARK                            x       y       z     vdW  Elec       q    Type
REMARK                         _______ _______ _______ _____ _____    ______ ____
ROOT
ATOM      1  O   UNL     1      -0.158   1.532 -22.598  0.00  0.00    -0.461 OA
ENDROOT
BRANCH   1   2
ATOM      2  C   UNL     1       0.921   1.558 -21.873  0.00  0.00    +0.339 C 
ATOM      3  O   UNL     1       0.862   1.264 -20.608  0.00  0.00    -0.245 OA
BRANCH   2   7
ATOM      4  C   UNL     1       4.335   2.520 -23.496  0.00  0.00    +0.121 A 
ATOM      5  C   UNL     1       4.092   1.283 -23.178  0.00  0.00    +0.046 A 
ATOM      6  C   UNL     1       2.954   0.963 -22.637  0.00  0.00    +0.018 A 
ATOM      7  C   UNL     1       2.059   1.879 -22.414  0.00  0.00    +0.059 A 
ATOM      8  C   UNL     1       2.302   3.115 -22.732  0.00  0.00    +0.018 A 
ATOM      9  C   UNL     1       3.440   3.436 -23.273  0.00  0.00    +0.046 A 
BRANCH   4  10
ATOM     10  O   UNL     1       5.473   2.841 -24.037  0.00  0.00    -0.492 OA
BRANCH  10  11
ATOM     11  C   UNL     1       6.167   3.827 -23.553  0.00  0.00    +0.229 C 
BRANCH  11  13
ATOM     12  C   UNL     1       6.933   3.906 -21.437  0.00  0.00    +0.007 C 
ATOM     13  C   UNL     1       7.108   3.595 -22.687  0.00  0.00    +0.038 C 
ENDBRANCH  11  13
ENDBRANCH  10  11
ENDBRANCH   4  10
ENDBRANCH   2   7
ENDBRANCH   1   2
BRANCH   1  14
ATOM     14  C   UNL     1      -1.185   2.256 -22.260  0.00  0.00    +0.241 C 
BRANCH  14  15
ATOM     15  C   UNL     1      -1.930   2.795 -23.178  0.00  0.00    +0.075 C 
ATOM     16  C   UNL     1      -1.415   3.114 -24.329  0.00  0.00    +0.017 C 
ATOM     17  C   UNL     1      -2.161   3.653 -25.247  0.00  0.00    +0.051 C 
ATOM     18  C   UNL     1      -3.422   3.872 -25.015  0.00  0.00    +0.133 C 
ATOM     19  N   UNL     1      -3.936   3.552 -23.865  0.00  0.00    +0.244 N 
ATOM     20  C   UNL     1      -5.196   3.771 -23.633  0.00  0.00    +0.133 C 
ATOM     21  C   UNL     1      -5.711   3.451 -22.483  0.00  0.00    +0.051 C 
ATOM     22  C   UNL     1      -4.965   2.912 -21.564  0.00  0.00    +0.011 C 
ATOM     23  C   UNL     1      -3.705   2.694 -21.797  0.00  0.00    +0.055 C 
ATOM     24  C   UNL     1      -4.682   4.091 -24.784  0.00  0.00    +0.192 C 
ATOM     25  C   UNL     1      -3.190   3.013 -22.947  0.00  0.00    +0.072 C 
ENDBRANCH  14  15
ENDBRANCH   1  14
TORSDOF 7
ENDMDL
MODEL 4
REMARK VINA RESULT:    -8.947      1.634      2.996
REMARK INTER + INTRA:         -13.959
REMARK INTER:                 -12.897
REMARK INTRA:                  -1.063
REMARK UNBOUND:                -1.351
REMARK  Name = CCCOc1ccc(C(=O)OC[C@@H]2CCC[N@@+]3(C)CCCC[C@H]23)cc1                 ZINC000252441459
REMARK  9 active torsions:
REMARK  status: ('A' for Active; 'I' for Inactive)
REMARK    1  A    between atoms: C_1  and  C_2
REMARK    2  A    between atoms: C_2  and  C_3
REMARK    3  A    between atoms: C_3  and  O_4
REMARK    4  A    between atoms: O_4  and  C_5
REMARK    5  A    between atoms: C_8  and  C_9
REMARK    6  A    between atoms: C_9  and  O_11
REMARK    7  A    between atoms: O_11  and  C_12
REMARK    8  A    between atoms: C_12  and  C_13
REMARK    9  A    between atoms: N_17  and  C_18
REMARK                            x       y       z     vdW  Elec       q    Type
REMARK                         _______ _______ _______ _____ _____    ______ ____
ROOT
ATOM      1  O   UNL     1      -0.007   2.794 -22.344  0.00  0.00    -0.461 OA
ENDROOT
BRANCH   1   2
ATOM      2  C   UNL     1       0.840   2.522 -23.291  0.00  0.00    +0.339 C 
ATOM      3  O   UNL     1       0.418   2.328 -24.505  0.00  0.00    -0.245 OA
BRANCH   2   7
ATOM      4  C   UNL     1       4.651   2.289 -22.489  0.00  0.00    +0.121 A 
ATOM      5  C   UNL     1       3.775   1.944 -21.592  0.00  0.00    +0.046 A 
ATOM      6  C   UNL     1       2.505   2.022 -21.859  0.00  0.00    +0.018 A 
ATOM      7  C   UNL     1       2.110   2.444 -23.023  0.00  0.00    +0.059 A 
ATOM      8  C   UNL     1       2.986   2.789 -23.921  0.00  0.00    +0.018 A 
ATOM      9  C   UNL     1       4.256   2.711 -23.654  0.00  0.00    +0.046 A 
BRANCH   4  10
ATOM     10  O   UNL     1       5.920   2.211 -22.222  0.00  0.00    -0.492 OA
BRANCH  10  11
ATOM     11  C   UNL     1       6.715   3.183 -22.557  0.00  0.00    +0.229 C 
BRANCH  11  13
ATOM     12  C   UNL     1       6.506   5.380 -22.106  0.00  0.00    +0.007 C 
ATOM     13  C   UNL     1       6.888   4.188 -21.751  0.00  0.00    +0.038 C 
ENDBRANCH  11  13
ENDBRANCH  10  11
ENDBRANCH   4  10
ENDBRANCH   2   7
ENDBRANCH   1   2
BRANCH   1  14
ATOM     14  C   UNL     1      -0.877   3.748 -22.504  0.00  0.00    +0.241 C 
BRANCH  14  15
ATOM     15  C   UNL     1      -2.126   3.546 -22.204  0.00  0.00    +0.075 C 
ATOM     16  C   UNL     1      -2.447   3.106 -21.023  0.00  0.00    +0.017 C 
ATOM     17  C   UNL     1      -3.696   2.904 -20.722  0.00  0.00    +0.051 C 
ATOM     18  C   UNL     1      -4.623   3.142 -21.603  0.00  0.00    +0.133 C 
ATOM     19  N   UNL     1      -4.301   3.582 -22.783  0.00  0.00    +0.244 N 
ATOM     20  C   UNL     1      -5.227   3.820 -23.662  0.00  0.00    +0.133 C 
ATOM     21  C   UNL     1      -4.906   4.260 -24.843  0.00  0.00    +0.051 C 
ATOM     22  C   UNL     1      -3.658   4.462 -25.144  0.00  0.00    +0.011 C 
ATOM     23  C   UNL     1      -2.731   4.224 -24.263  0.00  0.00    +0.055 C 
ATOM     24  C   UNL     1      -5.550   3.380 -22.482  0.00  0.00    +0.192 C 
ATOM     25  C   UNL     1      -3.053   3.784 -23.083  0.00  0.00    +0.072 C 
ENDBRANCH  14  15
ENDBRANCH   1  14
TORSDOF 7
ENDMDL
MODEL 5
REMARK VINA RESULT:    -8.498      2.571      7.516
REMARK INTER + INTRA:         -13.326
REMARK INTER:                 -11.889
REMARK INTRA:                  -1.437
REMARK UNBOUND:                -1.351
REMARK  Name = CCCOc1ccc(C(=O)OC[C@@H]2CCC[N@@+]3(C)CCCC[C@H]23)cc1                 ZINC000252441459
REMARK  9 active torsions:
REMARK  status: ('A' for Active; 'I' for Inactive)
REMARK    1  A    between atoms: C_1  and  C_2
REMARK    2  A    between atoms: C_2  and  C_3
REMARK    3  A    between atoms: C_3  and  O_4
REMARK    4  A    between atoms: O_4  and  C_5
REMARK    5  A    between atoms: C_8  and  C_9
REMARK    6  A    between atoms: C_9  and  O_11
REMARK    7  A    between atoms: O_11  and  C_12
REMARK    8  A    between atoms: C_12  and  C_13
REMARK    9  A    between atoms: N_17  and  C_18
REMARK                            x       y       z     vdW  Elec       q    Type
REMARK                         _______ _______ _______ _____ _____    ______ ____
ROOT
ATOM      1  O   UNL     1       1.491   1.868 -24.357  0.00  0.00    -0.461 OA
ENDROOT
BRANCH   1   2
ATOM      2  C   UNL     1       0.876   2.994 -24.148  0.00  0.00    +0.339 C 
ATOM      3  O   UNL     1       1.223   4.057 -24.809  0.00  0.00    -0.245 OA
BRANCH   2   7
ATOM      4  C   UNL     1      -2.012   3.178 -21.532  0.00  0.00    +0.121 A 
ATOM      5  C   UNL     1      -1.711   4.224 -22.242  0.00  0.00    +0.046 A 
ATOM      6  C   UNL     1      -0.748   4.163 -23.114  0.00  0.00    +0.018 A 
ATOM      7  C   UNL     1      -0.087   3.055 -23.276  0.00  0.00    +0.059 A 
ATOM      8  C   UNL     1      -0.388   2.009 -22.566  0.00  0.00    +0.018 A 
ATOM      9  C   UNL     1      -1.351   2.070 -21.694  0.00  0.00    +0.046 A 
BRANCH   4  10
ATOM     10  O   UNL     1      -2.974   3.239 -20.660  0.00  0.00    -0.492 OA
BRANCH  10  11
ATOM     11  C   UNL     1      -4.112   3.777 -20.985  0.00  0.00    +0.229 C 
BRANCH  11  13
ATOM     12  C   UNL     1      -5.471   3.518 -22.763  0.00  0.00    +0.007 C 
ATOM     13  C   UNL     1      -4.998   3.080 -21.633  0.00  0.00    +0.038 C 
ENDBRANCH  11  13
ENDBRANCH  10  11
ENDBRANCH   4  10
ENDBRANCH   2   7
ENDBRANCH   1   2
BRANCH   1  14
ATOM     14  C   UNL     1       2.790   1.822 -24.328  0.00  0.00    +0.241 C 
BRANCH  14  15
ATOM     15  C   UNL     1       3.408   1.616 -23.203  0.00  0.00    +0.075 C 
ATOM     16  C   UNL     1       3.073   0.607 -22.453  0.00  0.00    +0.017 C 
ATOM     17  C   UNL     1       3.691   0.400 -21.328  0.00  0.00    +0.051 C 
ATOM     18  C   UNL     1       4.643   1.202 -20.952  0.00  0.00    +0.133 C 
ATOM     19  N   UNL     1       4.978   2.210 -21.702  0.00  0.00    +0.244 N 
ATOM     20  C   UNL     1       5.930   3.011 -21.327  0.00  0.00    +0.133 C 
ATOM     21  C   UNL     1       6.265   4.020 -22.077  0.00  0.00    +0.051 C 
ATOM     22  C   UNL     1       5.647   4.226 -23.202  0.00  0.00    +0.011 C 
ATOM     23  C   UNL     1       4.695   3.424 -23.576  0.00  0.00    +0.055 C 
ATOM     24  C   UNL     1       5.596   2.003 -20.577  0.00  0.00    +0.192 C 
ATOM     25  C   UNL     1       4.360   2.417 -22.827  0.00  0.00    +0.072 C 
ENDBRANCH  14  15
ENDBRANCH   1  14
TORSDOF 7
ENDMDL
MODEL 6
REMARK VINA RESULT:    -8.435      2.151      2.574
REMARK INTER + INTRA:         -13.237
REMARK INTER:                 -12.635
REMARK INTRA:                  -0.602
REMARK UNBOUND:                -1.351
REMARK  Name = CCCOc1ccc(C(=O)OC[C@@H]2CCC[N@@+]3(C)CCCC[C@H]23)cc1                 ZINC000252441459
REMARK  9 active torsions:
REMARK  status: ('A' for Active; 'I' for Inactive)
REMARK    1  A    between atoms: C_1  and  C_2
REMARK    2  A    between atoms: C_2  and  C_3
REMARK    3  A    between atoms: C_3  and  O_4
REMARK    4  A    between atoms: O_4  and  C_5
REMARK    5  A    between atoms: C_8  and  C_9
REMARK    6  A    between atoms: C_9  and  O_11
REMARK    7  A    between atoms: O_11  and  C_12
REMARK    8  A    between atoms: C_12  and  C_13
REMARK    9  A    between atoms: N_17  and  C_18
REMARK                            x       y       z     vdW  Elec       q    Type
REMARK                         _______ _______ _______ _____ _____    ______ ____
ROOT
ATOM      1  O   UNL     1      -0.239   3.602 -24.205  0.00  0.00    -0.461 OA
ENDROOT
BRANCH   1   2
ATOM      2  C   UNL     1       0.845   3.927 -24.843  0.00  0.00    +0.339 C 
ATOM      3  O   UNL     1       0.810   4.121 -26.128  0.00  0.00    -0.245 OA
BRANCH   2   7
ATOM      4  C   UNL     1       4.206   4.321 -22.902  0.00  0.00    +0.121 A 
ATOM      5  C   UNL     1       3.358   5.305 -22.940  0.00  0.00    +0.046 A 
ATOM      6  C   UNL     1       2.237   5.174 -23.587  0.00  0.00    +0.018 A 
ATOM      7  C   UNL     1       1.965   4.058 -24.196  0.00  0.00    +0.059 A 
ATOM      8  C   UNL     1       2.813   3.074 -24.158  0.00  0.00    +0.018 A 
ATOM      9  C   UNL     1       3.933   3.205 -23.511  0.00  0.00    +0.046 A 
BRANCH   4  10
ATOM     10  O   UNL     1       5.325   4.452 -22.255  0.00  0.00    -0.492 OA
BRANCH  10  11
ATOM     11  C   UNL     1       6.331   5.058 -22.813  0.00  0.00    +0.229 C 
BRANCH  11  13
ATOM     12  C   UNL     1       7.944   3.671 -23.550  0.00  0.00    +0.007 C 
ATOM     13  C   UNL     1       6.966   4.493 -23.795  0.00  0.00    +0.038 C 
ENDBRANCH  11  13
ENDBRANCH  10  11
ENDBRANCH   4  10
ENDBRANCH   2   7
ENDBRANCH   1   2
BRANCH   1  14
ATOM     14  C   UNL     1      -1.079   4.525 -23.839  0.00  0.00    +0.241 C 
BRANCH  14  15
ATOM     15  C   UNL     1      -2.357   4.286 -23.862  0.00  0.00    +0.075 C 
ATOM     16  C   UNL     1      -3.026   4.432 -24.968  0.00  0.00    +0.017 C 
ATOM     17  C   UNL     1      -4.304   4.193 -24.990  0.00  0.00    +0.051 C 
ATOM     18  C   UNL     1      -4.913   3.810 -23.907  0.00  0.00    +0.133 C 
ATOM     19  N   UNL     1      -4.244   3.664 -22.802  0.00  0.00    +0.244 N 
ATOM     20  C   UNL     1      -4.852   3.281 -21.720  0.00  0.00    +0.133 C 
ATOM     21  C   UNL     1      -4.184   3.135 -20.614  0.00  0.00    +0.051 C 
ATOM     22  C   UNL     1      -2.906   3.374 -20.591  0.00  0.00    +0.011 C 
ATOM     23  C   UNL     1      -2.298   3.758 -21.675  0.00  0.00    +0.055 C 
ATOM     24  C   UNL     1      -5.522   3.426 -22.825  0.00  0.00    +0.192 C 
ATOM     25  C   UNL     1      -2.966   3.903 -22.780  0.00  0.00    +0.072 C 
ENDBRANCH  14  15
ENDBRANCH   1  14
TORSDOF 7
ENDMDL
MODEL 7
REMARK VINA RESULT:    -7.840      3.587      7.941
REMARK INTER + INTRA:         -12.400
REMARK INTER:                 -11.325
REMARK INTRA:                  -1.075
REMARK UNBOUND:                -1.351
REMARK  Name = CCCOc1ccc(C(=O)OC[C@@H]2CCC[N@@+]3(C)CCCC[C@H]23)cc1                 ZINC000252441459
REMARK  9 active torsions:
REMARK  status: ('A' for Active; 'I' for Inactive)
REMARK    1  A    between atoms: C_1  and  C_2
REMARK    2  A    between atoms: C_2  and  C_3
REMARK    3  A    between atoms: C_3  and  O_4
REMARK    4  A    between atoms: O_4  and  C_5
REMARK    5  A    between atoms: C_8  and  C_9
REMARK    6  A    between atoms: C_9  and  O_11
REMARK    7  A    between atoms: O_11  and  C_12
REMARK    8  A    between atoms: C_12  and  C_13
REMARK    9  A    between atoms: N_17  and  C_18
REMARK                            x       y       z     vdW  Elec       q    Type
REMARK                         _______ _______ _______ _____ _____    ______ ____
ROOT
ATOM      1  O   UNL     1       2.543   2.872 -22.755  0.00  0.00    -0.461 OA
ENDROOT
BRANCH   1   2
ATOM      2  C   UNL     1       1.462   2.336 -23.241  0.00  0.00    +0.339 C 
ATOM      3  O   UNL     1       1.542   1.483 -24.218  0.00  0.00    -0.245 OA
BRANCH   2   7
ATOM      4  C   UNL     1      -2.019   3.294 -21.764  0.00  0.00    +0.121 A 
ATOM      5  C   UNL     1      -1.372   4.143 -22.506  0.00  0.00    +0.046 A 
ATOM      6  C   UNL     1      -0.211   3.824 -22.998  0.00  0.00    +0.018 A 
ATOM      7  C   UNL     1       0.302   2.656 -22.749  0.00  0.00    +0.059 A 
ATOM      8  C   UNL     1      -0.346   1.807 -22.007  0.00  0.00    +0.018 A 
ATOM      9  C   UNL     1      -1.506   2.125 -21.515  0.00  0.00    +0.046 A 
BRANCH   4  10
ATOM     10  O   UNL     1      -3.179   3.613 -21.272  0.00  0.00    -0.492 OA
BRANCH  10  11
ATOM     11  C   UNL     1      -4.201   2.831 -21.459  0.00  0.00    +0.229 C 
BRANCH  11  13
ATOM     12  C   UNL     1      -5.311   3.679 -23.225  0.00  0.00    +0.007 C 
ATOM     13  C   UNL     1      -5.294   3.304 -21.980  0.00  0.00    +0.038 C 
ENDBRANCH  11  13
ENDBRANCH  10  11
ENDBRANCH   4  10
ENDBRANCH   2   7
ENDBRANCH   1   2
BRANCH   1  14
ATOM     14  C   UNL     1       3.331   3.559 -23.529  0.00  0.00    +0.241 C 
BRANCH  14  15
ATOM     15  C   UNL     1       3.907   4.634 -23.079  0.00  0.00    +0.075 C 
ATOM     16  C   UNL     1       3.200   5.699 -22.842  0.00  0.00    +0.017 C 
ATOM     17  C   UNL     1       3.776   6.775 -22.392  0.00  0.00    +0.051 C 
ATOM     18  C   UNL     1       5.059   6.784 -22.180  0.00  0.00    +0.133 C 
ATOM     19  N   UNL     1       5.766   5.719 -22.417  0.00  0.00    +0.244 N 
ATOM     20  C   UNL     1       7.047   5.729 -22.205  0.00  0.00    +0.133 C 
ATOM     21  C   UNL     1       7.754   4.663 -22.442  0.00  0.00    +0.051 C 
ATOM     22  C   UNL     1       7.178   3.588 -22.891  0.00  0.00    +0.011 C 
ATOM     23  C   UNL     1       5.896   3.579 -23.104  0.00  0.00    +0.055 C 
ATOM     24  C   UNL     1       6.342   6.795 -21.967  0.00  0.00    +0.192 C 
ATOM     25  C   UNL     1       5.190   4.644 -22.866  0.00  0.00    +0.072 C 
ENDBRANCH  14  15
ENDBRANCH   1  14
TORSDOF 7
ENDMDL
MODEL 8
REMARK VINA RESULT:    -7.824      2.367      4.025
REMARK INTER + INTRA:         -12.376
REMARK INTER:                 -11.235
REMARK INTRA:                  -1.141
REMARK UNBOUND:                -1.351
REMARK  Name = CCCOc1ccc(C(=O)OC[C@@H]2CCC[N@@+]3(C)CCCC[C@H]23)cc1                 ZINC000252441459
REMARK  9 active torsions:
REMARK  status: ('A' for Active; 'I' for Inactive)
REMARK    1  A    between atoms: C_1  and  C_2
REMARK    2  A    between atoms: C_2  and  C_3
REMARK    3  A    between atoms: C_3  and  O_4
REMARK    4  A    between atoms: O_4  and  C_5
REMARK    5  A    between atoms: C_8  and  C_9
REMARK    6  A    between atoms: C_9  and  O_11
REMARK    7  A    between atoms: O_11  and  C_12
REMARK    8  A    between atoms: C_12  and  C_13
REMARK    9  A    between atoms: N_17  and  C_18
REMARK                            x       y       z     vdW  Elec       q    Type
REMARK                         _______ _______ _______ _____ _____    ______ ____
ROOT
ATOM      1  O   UNL     1       1.952   1.257 -23.016  0.00  0.00    -0.461 OA
ENDROOT
BRANCH   1   2
ATOM      2  C   UNL     1       3.009   1.062 -22.284  0.00  0.00    +0.339 C 
ATOM      3  O   UNL     1       3.064   0.045 -21.478  0.00  0.00    -0.245 OA
BRANCH   2   7
ATOM      4  C   UNL     1       6.017   3.536 -22.511  0.00  0.00    +0.121 A 
ATOM      5  C   UNL     1       5.210   3.399 -23.521  0.00  0.00    +0.046 A 
ATOM      6  C   UNL     1       4.207   2.574 -23.446  0.00  0.00    +0.018 A 
ATOM      7  C   UNL     1       4.012   1.887 -22.360  0.00  0.00    +0.059 A 
ATOM      8  C   UNL     1       4.818   2.024 -21.350  0.00  0.00    +0.018 A 
ATOM      9  C   UNL     1       5.820   2.848 -21.425  0.00  0.00    +0.046 A 
BRANCH   4  10
ATOM     10  O   UNL     1       7.019   4.360 -22.586  0.00  0.00    -0.492 OA
BRANCH  10  11
ATOM     11  C   UNL     1       7.154   5.301 -21.700  0.00  0.00    +0.229 C 
BRANCH  11  13
ATOM     12  C   UNL     1       6.306   7.214 -20.867  0.00  0.00    +0.007 C 
ATOM     13  C   UNL     1       6.587   6.455 -21.886  0.00  0.00    +0.038 C 
ENDBRANCH  11  13
ENDBRANCH  10  11
ENDBRANCH   4  10
ENDBRANCH   2   7
ENDBRANCH   1   2
BRANCH   1  14
ATOM     14  C   UNL     1       0.900   1.822 -22.501  0.00  0.00    +0.241 C 
BRANCH  14  15
ATOM     15  C   UNL     1       0.070   2.468 -23.264  0.00  0.00    +0.075 C 
ATOM     16  C   UNL     1       0.474   2.950 -24.402  0.00  0.00    +0.017 C 
ATOM     17  C   UNL     1      -0.357   3.596 -25.166  0.00  0.00    +0.051 C 
ATOM     18  C   UNL     1      -1.592   3.759 -24.792  0.00  0.00    +0.133 C 
ATOM     19  N   UNL     1      -1.995   3.276 -23.654  0.00  0.00    +0.244 N 
ATOM     20  C   UNL     1      -3.229   3.439 -23.280  0.00  0.00    +0.133 C 
ATOM     21  C   UNL     1      -3.633   2.957 -22.141  0.00  0.00    +0.051 C 
ATOM     22  C   UNL     1      -2.802   2.311 -21.378  0.00  0.00    +0.011 C 
ATOM     23  C   UNL     1      -1.568   2.149 -21.753  0.00  0.00    +0.055 C 
ATOM     24  C   UNL     1      -2.826   3.922 -24.418  0.00  0.00    +0.192 C 
ATOM     25  C   UNL     1      -1.165   2.631 -22.890  0.00  0.00    +0.072 C 
ENDBRANCH  14  15
ENDBRANCH   1  14
TORSDOF 7
ENDMDL
MODEL 9
REMARK VINA RESULT:    -7.534      3.126      5.144
REMARK INTER + INTRA:         -11.968
REMARK INTER:                 -10.617
REMARK INTRA:                  -1.351
REMARK UNBOUND:                -1.351
REMARK  Name = CCCOc1ccc(C(=O)OC[C@@H]2CCC[N@@+]3(C)CCCC[C@H]23)cc1                 ZINC000252441459
REMARK  9 active torsions:
REMARK  status: ('A' for Active; 'I' for Inactive)
REMARK    1  A    between atoms: C_1  and  C_2
REMARK    2  A    between atoms: C_2  and  C_3
REMARK    3  A    between atoms: C_3  and  O_4
REMARK    4  A    between atoms: O_4  and  C_5
REMARK    5  A    between atoms: C_8  and  C_9
REMARK    6  A    between atoms: C_9  and  O_11
REMARK    7  A    between atoms: O_11  and  C_12
REMARK    8  A    between atoms: C_12  and  C_13
REMARK    9  A    between atoms: N_17  and  C_18
REMARK                            x       y       z     vdW  Elec       q    Type
REMARK                         _______ _______ _______ _____ _____    ______ ____
ROOT
ATOM      1  O   UNL     1       3.704   1.970 -23.678  0.00  0.00    -0.461 OA
ENDROOT
BRANCH   1   2
ATOM      2  C   UNL     1       4.616   1.874 -22.757  0.00  0.00    +0.339 C 
ATOM      3  O   UNL     1       4.804   0.745 -22.141  0.00  0.00    -0.245 OA
BRANCH   2   7
ATOM      4  C   UNL     1       6.791   4.981 -21.841  0.00  0.00    +0.121 A 
ATOM      5  C   UNL     1       6.101   4.973 -22.942  0.00  0.00    +0.046 A 
ATOM      6  C   UNL     1       5.376   3.937 -23.248  0.00  0.00    +0.018 A 
ATOM      7  C   UNL     1       5.341   2.910 -22.452  0.00  0.00    +0.059 A 
ATOM      8  C   UNL     1       6.032   2.918 -21.350  0.00  0.00    +0.018 A 
ATOM      9  C   UNL     1       6.757   3.953 -21.045  0.00  0.00    +0.046 A 
BRANCH   4  10
ATOM     10  O   UNL     1       7.516   6.016 -21.535  0.00  0.00    -0.492 OA
BRANCH  10  11
ATOM     11  C   UNL     1       7.203   6.747 -20.508  0.00  0.00    +0.229 C 
BRANCH  11  13
ATOM     12  C   UNL     1       5.360   8.027 -20.697  0.00  0.00    +0.007 C 
ATOM     13  C   UNL     1       6.655   7.913 -20.683  0.00  0.00    +0.038 C 
ENDBRANCH  11  13
ENDBRANCH  10  11
ENDBRANCH   4  10
ENDBRANCH   2   7
ENDBRANCH   1   2
BRANCH   1  14
ATOM     14  C   UNL     1       2.455   1.766 -23.379  0.00  0.00    +0.241 C 
BRANCH  14  15
ATOM     15  C   UNL     1       1.611   2.754 -23.405  0.00  0.00    +0.075 C 
ATOM     16  C   UNL     1       1.885   3.825 -24.090  0.00  0.00    +0.017 C 
ATOM     17  C   UNL     1       1.041   4.813 -24.115  0.00  0.00    +0.051 C 
ATOM     18  C   UNL     1      -0.077   4.731 -23.456  0.00  0.00    +0.133 C 
ATOM     19  N   UNL     1      -0.351   3.660 -22.772  0.00  0.00    +0.244 N 
ATOM     20  C   UNL     1      -1.468   3.577 -22.113  0.00  0.00    +0.133 C 
ATOM     21  C   UNL     1      -1.742   2.506 -21.428  0.00  0.00    +0.051 C 
ATOM     22  C   UNL     1      -0.898   1.518 -21.403  0.00  0.00    +0.011 C 
ATOM     23  C   UNL     1       0.220   1.601 -22.062  0.00  0.00    +0.055 C 
ATOM     24  C   UNL     1      -1.195   4.648 -22.798  0.00  0.00    +0.192 C 
ATOM     25  C   UNL     1       0.493   2.672 -22.746  0.00  0.00    +0.072 C 
ENDBRANCH  14  15
ENDBRANCH   1  14
TORSDOF 7
ENDMDL
