MODEL 1
REMARK VINA RESULT:    -7.384      0.000      0.000
REMARK INTER + INTRA:          -8.566
REMARK INTER:                  -7.447
REMARK INTRA:                  -1.119
REMARK UNBOUND:                -0.534
REMARK  Name = ZINC000003861465
REMARK  3 active torsions:
REMARK  status: ('A' for Active; 'I' for Inactive)
REMARK    1  A    between atoms: C_2  and  C_4
REMARK    2  A    between atoms: C_9  and  C_10
REMARK    3  A    between atoms: C_22  and  O_23
REMARK                            x       y       z     vdW  Elec       q    Type
REMARK                         _______ _______ _______ _____ _____    ______ ____
ROOT
ATOM      1  C   UNL     1       5.047   5.327 -22.916  0.00  0.00    +0.004 A 
ATOM      2  C   UNL     1       3.843   4.955 -23.203  0.00  0.00    +0.027 A 
ATOM      3  C   UNL     1       3.643   3.882 -23.855  0.00  0.00    +0.036 A 
ATOM      4  C   UNL     1       2.453   3.521 -24.136  0.00  0.00    +0.088 A 
ATOM      5  C   UNL     1       1.463   4.231 -23.765  0.00  0.00    +0.201 A 
ATOM      6  C   UNL     1       1.667   5.305 -23.112  0.00  0.00    +0.099 A 
ATOM      7  O   UNL     1       0.273   3.868 -24.046  0.00  0.00    -0.286 OA
ATOM      8 CL   UNL     1       2.251   2.442 -24.791  0.00  0.00    -0.080 Cl
ATOM      9  C   UNL     1       2.855   5.670 -22.830  0.00  0.00    +0.140 A 
ATOM     10  O   UNL     1       3.048   6.748 -22.175  0.00  0.00    -0.455 OA
ATOM     11  C   UNL     1       4.237   7.120 -21.889  0.00  0.00    +0.140 A 
ATOM     12  C   UNL     1       4.421   8.201 -21.233  0.00  0.00    +0.093 A 
ATOM     13  C   UNL     1       5.609   8.575 -20.944  0.00  0.00    +0.139 A 
ATOM     14  C   UNL     1       6.611   7.871 -21.311  0.00  0.00    +0.083 A 
ATOM     15  C   UNL     1       6.422   6.791 -21.966  0.00  0.00    +0.035 A 
ATOM     16 CL   UNL     1       7.795   8.247 -21.022  0.00  0.00    -0.080 Cl
ATOM     17  C   UNL     1       5.236   6.412 -22.257  0.00  0.00    +0.027 A 
ENDROOT
BRANCH   1  23
ATOM     18  C   UNL     1       6.988   3.170 -22.831  0.00  0.00    +0.005 A 
ATOM     19  C   UNL     1       7.994   2.467 -23.194  0.00  0.00    +0.010 A 
ATOM     20  C   UNL     1       8.665   2.806 -24.227  0.00  0.00    +0.001 A 
ATOM     21  C   UNL     1       8.334   3.842 -24.897  0.00  0.00    +0.001 A 
ATOM     22  C   UNL     1       7.327   4.542 -24.529  0.00  0.00    +0.009 A 
ATOM     23  C   UNL     1       6.652   4.208 -23.497  0.00  0.00    -0.008 A 
BRANCH  18  25
ATOM     24  O   UNL     1       5.549   1.908 -21.922  0.00  0.00    -0.545 OA
ATOM     25  C   UNL     1       6.346   2.841 -21.837  0.00  0.00    +0.072 C 
ATOM     26  O   UNL     1       6.502   3.458 -20.731  0.00  0.00    -0.545 OA
ENDBRANCH  18  25
ENDBRANCH   1  23
BRANCH  13  27
ATOM     27  O   UNL     1       5.795   9.657 -20.288  0.00  0.00    -0.505 OA
ATOM     28  H   UNL     1       6.328  10.338 -20.648  0.00  0.00    +0.292 HD
ENDBRANCH  13  27
TORSDOF 3
ENDMDL
MODEL 2
REMARK VINA RESULT:    -7.048      0.191      4.667
REMARK INTER + INTRA:          -8.200
REMARK INTER:                  -7.102
REMARK INTRA:                  -1.098
REMARK UNBOUND:                -0.534
REMARK  Name = ZINC000003861465
REMARK  3 active torsions:
REMARK  status: ('A' for Active; 'I' for Inactive)
REMARK    1  A    between atoms: C_2  and  C_4
REMARK    2  A    between atoms: C_9  and  C_10
REMARK    3  A    between atoms: C_22  and  O_23
REMARK                            x       y       z     vdW  Elec       q    Type
REMARK                         _______ _______ _______ _____ _____    ______ ____
ROOT
ATOM      1  C   UNL     1       5.082   5.309 -22.985  0.00  0.00    +0.004 A 
ATOM      2  C   UNL     1       5.220   6.429 -22.357  0.00  0.00    +0.027 A 
ATOM      3  C   UNL     1       6.382   6.876 -22.093  0.00  0.00    +0.036 A 
ATOM      4  C   UNL     1       6.513   7.982 -21.473  0.00  0.00    +0.088 A 
ATOM      5  C   UNL     1       5.484   8.642 -21.116  0.00  0.00    +0.201 A 
ATOM      6  C   UNL     1       4.323   8.193 -21.381  0.00  0.00    +0.099 A 
ATOM      7  O   UNL     1       5.617   9.749 -20.495  0.00  0.00    -0.286 OA
ATOM      8 CL   UNL     1       7.680   8.431 -21.209  0.00  0.00    -0.080 Cl
ATOM      9  C   UNL     1       4.188   7.087 -22.001  0.00  0.00    +0.140 A 
ATOM     10  O   UNL     1       3.019   6.646 -22.261  0.00  0.00    -0.455 OA
ATOM     11  C   UNL     1       2.876   5.538 -22.882  0.00  0.00    +0.140 A 
ATOM     12  C   UNL     1       1.702   5.104 -23.139  0.00  0.00    +0.093 A 
ATOM     13  C   UNL     1       1.556   3.996 -23.760  0.00  0.00    +0.139 A 
ATOM     14  C   UNL     1       2.581   3.324 -24.124  0.00  0.00    +0.083 A 
ATOM     15  C   UNL     1       3.753   3.762 -23.866  0.00  0.00    +0.035 A 
ATOM     16 CL   UNL     1       2.432   2.218 -24.744  0.00  0.00    -0.080 Cl
ATOM     17  C   UNL     1       3.904   4.869 -23.245  0.00  0.00    +0.027 A 
ENDROOT
BRANCH   1  23
ATOM     18  C   UNL     1       7.102   3.227 -22.879  0.00  0.00    +0.005 A 
ATOM     19  C   UNL     1       8.124   2.550 -23.243  0.00  0.00    +0.010 A 
ATOM     20  C   UNL     1       8.757   2.877 -24.304  0.00  0.00    +0.001 A 
ATOM     21  C   UNL     1       8.372   3.878 -24.999  0.00  0.00    +0.001 A 
ATOM     22  C   UNL     1       7.349   4.553 -24.629  0.00  0.00    +0.009 A 
ATOM     23  C   UNL     1       6.712   4.230 -23.570  0.00  0.00    -0.008 A 
BRANCH  18  25
ATOM     24  O   UNL     1       5.689   1.983 -21.907  0.00  0.00    -0.545 OA
ATOM     25  C   UNL     1       6.496   2.909 -21.859  0.00  0.00    +0.072 C 
ATOM     26  O   UNL     1       6.700   3.531 -20.763  0.00  0.00    -0.545 OA
ENDBRANCH  18  25
ENDBRANCH   1  23
BRANCH  13  27
ATOM     27  O   UNL     1       0.382   3.559 -24.018  0.00  0.00    -0.505 OA
ATOM     28  H   UNL     1       0.086   3.505 -24.906  0.00  0.00    +0.292 HD
ENDBRANCH  13  27
TORSDOF 3
ENDMDL
MODEL 3
REMARK VINA RESULT:    -6.282      4.581      8.687
REMARK INTER + INTRA:          -7.368
REMARK INTER:                  -7.403
REMARK INTRA:                   0.035
REMARK UNBOUND:                -0.534
REMARK  Name = ZINC000003861465
REMARK  3 active torsions:
REMARK  status: ('A' for Active; 'I' for Inactive)
REMARK    1  A    between atoms: C_2  and  C_4
REMARK    2  A    between atoms: C_9  and  C_10
REMARK    3  A    between atoms: C_22  and  O_23
REMARK                            x       y       z     vdW  Elec       q    Type
REMARK                         _______ _______ _______ _____ _____    ______ ____
ROOT
ATOM      1  C   UNL     1      -1.078   3.409 -23.829  0.00  0.00    +0.004 A 
ATOM      2  C   UNL     1       0.208   3.349 -23.942  0.00  0.00    +0.027 A 
ATOM      3  C   UNL     1       0.942   3.331 -22.903  0.00  0.00    +0.036 A 
ATOM      4  C   UNL     1       2.210   3.272 -23.021  0.00  0.00    +0.088 A 
ATOM      5  C   UNL     1       2.744   3.231 -24.175  0.00  0.00    +0.201 A 
ATOM      6  C   UNL     1       2.008   3.249 -25.213  0.00  0.00    +0.099 A 
ATOM      7  O   UNL     1       4.014   3.171 -24.291  0.00  0.00    -0.286 OA
ATOM      8 CL   UNL     1       2.947   3.254 -21.977  0.00  0.00    -0.080 Cl
ATOM      9  C   UNL     1       0.740   3.308 -25.100  0.00  0.00    +0.140 A 
ATOM     10  O   UNL     1       0.010   3.326 -26.147  0.00  0.00    -0.455 OA
ATOM     11  C   UNL     1      -1.262   3.385 -26.041  0.00  0.00    +0.140 A 
ATOM     12  C   UNL     1      -1.985   3.403 -27.094  0.00  0.00    +0.093 A 
ATOM     13  C   UNL     1      -3.258   3.462 -26.991  0.00  0.00    +0.139 A 
ATOM     14  C   UNL     1      -3.808   3.504 -25.838  0.00  0.00    +0.083 A 
ATOM     15  C   UNL     1      -3.081   3.486 -24.787  0.00  0.00    +0.035 A 
ATOM     16 CL   UNL     1      -5.078   3.563 -25.738  0.00  0.00    -0.080 Cl
ATOM     17  C   UNL     1      -1.807   3.427 -24.884  0.00  0.00    +0.027 A 
ENDROOT
BRANCH   1  23
ATOM     18  C   UNL     1      -1.828   2.502 -21.175  0.00  0.00    +0.005 A 
ATOM     19  C   UNL     1      -2.382   2.541 -20.023  0.00  0.00    +0.010 A 
ATOM     20  C   UNL     1      -3.074   3.562 -19.687  0.00  0.00    +0.001 A 
ATOM     21  C   UNL     1      -3.213   4.539 -20.498  0.00  0.00    +0.001 A 
ATOM     22  C   UNL     1      -2.656   4.494 -21.650  0.00  0.00    +0.009 A 
ATOM     23  C   UNL     1      -1.964   3.476 -21.991  0.00  0.00    -0.008 A 
BRANCH  18  25
ATOM     24  O   UNL     1      -1.526   0.837 -22.453  0.00  0.00    -0.545 OA
ATOM     25  C   UNL     1      -1.164   1.519 -21.495  0.00  0.00    +0.072 C 
ATOM     26  O   UNL     1      -0.112   1.208 -20.842  0.00  0.00    -0.545 OA
ENDBRANCH  18  25
ENDBRANCH   1  23
BRANCH  13  27
ATOM     27  O   UNL     1      -3.983   3.480 -28.044  0.00  0.00    -0.505 OA
ATOM     28  H   UNL     1      -4.334   2.681 -28.385  0.00  0.00    +0.292 HD
ENDBRANCH  13  27
TORSDOF 3
ENDMDL
MODEL 4
REMARK VINA RESULT:    -5.490      4.564      7.727
REMARK INTER + INTRA:          -6.506
REMARK INTER:                  -6.594
REMARK INTRA:                   0.088
REMARK UNBOUND:                -0.534
REMARK  Name = ZINC000003861465
REMARK  3 active torsions:
REMARK  status: ('A' for Active; 'I' for Inactive)
REMARK    1  A    between atoms: C_2  and  C_4
REMARK    2  A    between atoms: C_9  and  C_10
REMARK    3  A    between atoms: C_22  and  O_23
REMARK                            x       y       z     vdW  Elec       q    Type
REMARK                         _______ _______ _______ _____ _____    ______ ____
ROOT
ATOM      1  C   UNL     1      -1.121   3.429 -23.819  0.00  0.00    +0.004 A 
ATOM      2  C   UNL     1      -1.849   3.442 -24.886  0.00  0.00    +0.027 A 
ATOM      3  C   UNL     1      -3.117   3.481 -24.796  0.00  0.00    +0.036 A 
ATOM      4  C   UNL     1      -3.830   3.493 -25.853  0.00  0.00    +0.088 A 
ATOM      5  C   UNL     1      -3.276   3.466 -26.999  0.00  0.00    +0.201 A 
ATOM      6  C   UNL     1      -2.007   3.427 -27.087  0.00  0.00    +0.099 A 
ATOM      7  O   UNL     1      -3.991   3.478 -28.057  0.00  0.00    -0.286 OA
ATOM      8 CL   UNL     1      -5.104   3.532 -25.763  0.00  0.00    -0.080 Cl
ATOM      9  C   UNL     1      -1.291   3.415 -26.032  0.00  0.00    +0.140 A 
ATOM     10  O   UNL     1      -0.019   3.375 -26.131  0.00  0.00    -0.455 OA
ATOM     11  C   UNL     1       0.705   3.363 -25.078  0.00  0.00    +0.140 A 
ATOM     12  C   UNL     1       1.978   3.323 -25.186  0.00  0.00    +0.093 A 
ATOM     13  C   UNL     1       2.705   3.311 -24.134  0.00  0.00    +0.139 A 
ATOM     14  C   UNL     1       2.162   3.337 -22.978  0.00  0.00    +0.083 A 
ATOM     15  C   UNL     1       0.889   3.377 -22.874  0.00  0.00    +0.035 A 
ATOM     16 CL   UNL     1       2.890   3.325 -21.930  0.00  0.00    -0.080 Cl
ATOM     17  C   UNL     1       0.157   3.390 -23.923  0.00  0.00    +0.027 A 
ENDROOT
BRANCH   1  23
ATOM     18  C   UNL     1      -1.830   2.488 -21.166  0.00  0.00    +0.005 A 
ATOM     19  C   UNL     1      -2.368   2.512 -20.005  0.00  0.00    +0.010 A 
ATOM     20  C   UNL     1      -3.059   3.526 -19.647  0.00  0.00    +0.001 A 
ATOM     21  C   UNL     1      -3.213   4.512 -20.445  0.00  0.00    +0.001 A 
ATOM     22  C   UNL     1      -2.673   4.482 -21.605  0.00  0.00    +0.009 A 
ATOM     23  C   UNL     1      -1.981   3.472 -21.968  0.00  0.00    -0.008 A 
BRANCH  18  25
ATOM     24  O   UNL     1      -1.530   0.850 -22.477  0.00  0.00    -0.545 OA
ATOM     25  C   UNL     1      -1.167   1.512 -21.506  0.00  0.00    +0.072 C 
ATOM     26  O   UNL     1      -0.114   1.187 -20.861  0.00  0.00    -0.545 OA
ENDBRANCH  18  25
ENDBRANCH   1  23
BRANCH  13  27
ATOM     27  O   UNL     1       3.979   3.271 -24.240  0.00  0.00    -0.505 OA
ATOM     28  H   UNL     1       4.388   2.576 -24.718  0.00  0.00    +0.292 HD
ENDBRANCH  13  27
TORSDOF 3
ENDMDL
MODEL 5
REMARK VINA RESULT:    -4.798      2.523      3.402
REMARK INTER + INTRA:          -5.754
REMARK INTER:                  -4.472
REMARK INTRA:                  -1.282
REMARK UNBOUND:                -0.534
REMARK  Name = ZINC000003861465
REMARK  3 active torsions:
REMARK  status: ('A' for Active; 'I' for Inactive)
REMARK    1  A    between atoms: C_2  and  C_4
REMARK    2  A    between atoms: C_9  and  C_10
REMARK    3  A    between atoms: C_22  and  O_23
REMARK                            x       y       z     vdW  Elec       q    Type
REMARK                         _______ _______ _______ _____ _____    ______ ____
ROOT
ATOM      1  C   UNL     1       2.709   3.941 -22.581  0.00  0.00    +0.004 A 
ATOM      2  C   UNL     1       1.486   3.983 -22.994  0.00  0.00    +0.027 A 
ATOM      3  C   UNL     1       0.790   2.919 -23.042  0.00  0.00    +0.036 A 
ATOM      4  C   UNL     1      -0.417   2.967 -23.450  0.00  0.00    +0.088 A 
ATOM      5  C   UNL     1      -0.928   4.076 -23.810  0.00  0.00    +0.201 A 
ATOM      6  C   UNL     1      -0.230   5.139 -23.760  0.00  0.00    +0.099 A 
ATOM      7  O   UNL     1      -2.137   4.122 -24.218  0.00  0.00    -0.286 OA
ATOM      8 CL   UNL     1      -1.116   1.898 -23.499  0.00  0.00    -0.080 Cl
ATOM      9  C   UNL     1       0.977   5.096 -23.353  0.00  0.00    +0.140 A 
ATOM     10  O   UNL     1       1.669   6.167 -23.307  0.00  0.00    -0.455 OA
ATOM     11  C   UNL     1       2.880   6.131 -22.900  0.00  0.00    +0.140 A 
ATOM     12  C   UNL     1       3.565   7.209 -22.857  0.00  0.00    +0.093 A 
ATOM     13  C   UNL     1       4.777   7.176 -22.450  0.00  0.00    +0.139 A 
ATOM     14  C   UNL     1       5.303   6.069 -22.086  0.00  0.00    +0.083 A 
ATOM     15  C   UNL     1       4.614   4.994 -22.130  0.00  0.00    +0.035 A 
ATOM     16 CL   UNL     1       6.512   6.039 -21.680  0.00  0.00    -0.080 Cl
ATOM     17  C   UNL     1       3.401   5.021 -22.537  0.00  0.00    +0.027 A 
ENDROOT
BRANCH   1  23
ATOM     18  C   UNL     1       4.210   1.469 -22.838  0.00  0.00    +0.005 A 
ATOM     19  C   UNL     1       4.742   0.364 -22.475  0.00  0.00    +0.010 A 
ATOM     20  C   UNL     1       4.617  -0.033 -21.267  0.00  0.00    +0.001 A 
ATOM     21  C   UNL     1       3.965   0.670 -20.423  0.00  0.00    +0.001 A 
ATOM     22  C   UNL     1       3.435   1.776 -20.792  0.00  0.00    +0.009 A 
ATOM     23  C   UNL     1       3.556   2.178 -21.998  0.00  0.00    -0.008 A 
BRANCH  18  25
ATOM     24  O   UNL     1       3.516   1.473 -24.840  0.00  0.00    -0.545 OA
ATOM     25  C   UNL     1       4.332   1.848 -24.000  0.00  0.00    +0.072 C 
ATOM     26  O   UNL     1       5.292   2.620 -24.332  0.00  0.00    -0.545 OA
ENDBRANCH  18  25
ENDBRANCH   1  23
BRANCH  13  27
ATOM     27  O   UNL     1       5.465   8.253 -22.406  0.00  0.00    -0.505 OA
ATOM     28  H   UNL     1       5.375   8.894 -23.084  0.00  0.00    +0.292 HD
ENDBRANCH  13  27
TORSDOF 3
ENDMDL
MODEL 6
REMARK VINA RESULT:    -4.387      2.499      5.638
REMARK INTER + INTRA:          -5.306
REMARK INTER:                  -4.000
REMARK INTRA:                  -1.306
REMARK UNBOUND:                -0.534
REMARK  Name = ZINC000003861465
REMARK  3 active torsions:
REMARK  status: ('A' for Active; 'I' for Inactive)
REMARK    1  A    between atoms: C_2  and  C_4
REMARK    2  A    between atoms: C_9  and  C_10
REMARK    3  A    between atoms: C_22  and  O_23
REMARK                            x       y       z     vdW  Elec       q    Type
REMARK                         _______ _______ _______ _____ _____    ______ ____
ROOT
ATOM      1  C   UNL     1       2.732   3.996 -22.573  0.00  0.00    +0.004 A 
ATOM      2  C   UNL     1       3.418   5.088 -22.508  0.00  0.00    +0.027 A 
ATOM      3  C   UNL     1       4.618   5.067 -22.083  0.00  0.00    +0.036 A 
ATOM      4  C   UNL     1       5.290   6.148 -22.021  0.00  0.00    +0.088 A 
ATOM      5  C   UNL     1       4.765   7.250 -22.382  0.00  0.00    +0.201 A 
ATOM      6  C   UNL     1       3.565   7.269 -22.806  0.00  0.00    +0.099 A 
ATOM      7  O   UNL     1       5.439   8.332 -22.319  0.00  0.00    -0.286 OA
ATOM      8 CL   UNL     1       6.494   6.126 -21.595  0.00  0.00    -0.080 Cl
ATOM      9  C   UNL     1       2.889   6.190 -22.870  0.00  0.00    +0.140 A 
ATOM     10  O   UNL     1       1.687   6.220 -23.297  0.00  0.00    -0.455 OA
ATOM     11  C   UNL     1       1.004   5.142 -23.364  0.00  0.00    +0.140 A 
ATOM     12  C   UNL     1      -0.199   5.181 -23.793  0.00  0.00    +0.093 A 
ATOM     13  C   UNL     1      -0.885   4.104 -23.860  0.00  0.00    +0.139 A 
ATOM     14  C   UNL     1      -0.370   2.991 -23.501  0.00  0.00    +0.083 A 
ATOM     15  C   UNL     1       0.833   2.956 -23.073  0.00  0.00    +0.035 A 
ATOM     16 CL   UNL     1      -1.057   1.917 -23.570  0.00  0.00    -0.080 Cl
ATOM     17  C   UNL     1       1.523   4.030 -23.003  0.00  0.00    +0.027 A 
ENDROOT
BRANCH   1  23
ATOM     18  C   UNL     1       4.207   1.509 -22.839  0.00  0.00    +0.005 A 
ATOM     19  C   UNL     1       4.719   0.392 -22.483  0.00  0.00    +0.010 A 
ATOM     20  C   UNL     1       4.568  -0.020 -21.283  0.00  0.00    +0.001 A 
ATOM     21  C   UNL     1       3.910   0.679 -20.441  0.00  0.00    +0.001 A 
ATOM     22  C   UNL     1       3.400   1.796 -20.803  0.00  0.00    +0.009 A 
ATOM     23  C   UNL     1       3.547   2.214 -22.001  0.00  0.00    -0.008 A 
BRANCH  18  25
ATOM     24  O   UNL     1       3.547   1.550 -24.853  0.00  0.00    -0.545 OA
ATOM     25  C   UNL     1       4.354   1.902 -23.994  0.00  0.00    +0.072 C 
ATOM     26  O   UNL     1       5.330   2.666 -24.299  0.00  0.00    -0.545 OA
ENDBRANCH  18  25
ENDBRANCH   1  23
BRANCH  13  27
ATOM     27  O   UNL     1      -2.090   4.141 -24.289  0.00  0.00    -0.505 OA
ATOM     28  H   UNL     1      -2.785   3.791 -23.767  0.00  0.00    +0.292 HD
ENDBRANCH  13  27
TORSDOF 3
ENDMDL
