MODEL 1
REMARK VINA RESULT:    -9.412      0.000      0.000
REMARK INTER + INTRA:         -11.355
REMARK INTER:                 -10.802
REMARK INTRA:                  -0.553
REMARK UNBOUND:                -0.567
REMARK  Name = ZINC000000338038
REMARK  4 active torsions:
REMARK  status: ('A' for Active; 'I' for Inactive)
REMARK    1  A    between atoms: C_1  and  O_2
REMARK    2  A    between atoms: O_2  and  C_3
REMARK    3  A    between atoms: C_5  and  O_6
REMARK    4  A    between atoms: C_13  and  C_14
REMARK                            x       y       z     vdW  Elec       q    Type
REMARK                         _______ _______ _______ _____ _____    ______ ____
ROOT
ATOM      1  C   UNL     1       2.213   3.296 -22.952  0.00  0.00    +0.138 A 
ATOM      2  C   UNL     1       2.879   2.308 -22.431  0.00  0.00    +0.092 A 
ATOM      3  C   UNL     1       2.246   1.338 -21.841  0.00  0.00    +0.124 A 
ATOM      4  C   UNL     1       0.948   1.356 -21.771  0.00  0.00    +0.092 A 
ATOM      5  C   UNL     1       0.283   2.344 -22.291  0.00  0.00    +0.139 A 
ATOM      6  O   UNL     1      -1.015   2.362 -22.221  0.00  0.00    -0.483 OA
ATOM      7  C   UNL     1      -1.681   3.350 -22.741  0.00  0.00    +0.211 C 
ATOM      8  C   UNL     1      -1.048   4.321 -23.331  0.00  0.00    +0.129 C 
ATOM      9  C   UNL     1       0.250   4.302 -23.401  0.00  0.00    +0.174 C 
ATOM     10  O   UNL     1       0.882   5.273 -23.992  0.00  0.00    -0.292 OA
ATOM     11  C   UNL     1       0.915   3.314 -22.881  0.00  0.00    +0.101 A 
ENDROOT
BRANCH   7  12
ATOM     12  C   UNL     1      -2.978   3.368 -22.671  0.00  0.00    -0.007 A 
ATOM     13  C   UNL     1      -3.679   3.747 -23.697  0.00  0.00    +0.007 A 
ATOM     14  C   UNL     1      -4.978   3.765 -23.628  0.00  0.00    +0.000 A 
ATOM     15  C   UNL     1      -5.575   3.404 -22.531  0.00  0.00    +0.000 A 
ATOM     16  C   UNL     1      -4.873   3.024 -21.503  0.00  0.00    +0.000 A 
ATOM     17  C   UNL     1      -3.575   3.007 -21.574  0.00  0.00    +0.007 A 
ENDBRANCH   7  12
BRANCH   1  19
ATOM     18  C   UNL     1       4.085   4.514 -23.240  0.00  0.00    +0.277 C 
ATOM     19  O   UNL     1       2.845   4.267 -23.542  0.00  0.00    -0.494 OA
ENDBRANCH   1  19
BRANCH   3  20
ATOM     20  O   UNL     1       2.912   0.350 -21.321  0.00  0.00    -0.507 OA
ATOM     21  H   UNL     1       3.661   0.520 -20.783  0.00  0.00    +0.292 HD
ENDBRANCH   3  20
TORSDOF 3
ENDMDL
MODEL 2
REMARK VINA RESULT:    -9.272      1.243      2.811
REMARK INTER + INTRA:         -11.194
REMARK INTER:                 -10.628
REMARK INTRA:                  -0.566
REMARK UNBOUND:                -0.567
REMARK  Name = ZINC000000338038
REMARK  4 active torsions:
REMARK  status: ('A' for Active; 'I' for Inactive)
REMARK    1  A    between atoms: C_1  and  O_2
REMARK    2  A    between atoms: O_2  and  C_3
REMARK    3  A    between atoms: C_5  and  O_6
REMARK    4  A    between atoms: C_13  and  C_14
REMARK                            x       y       z     vdW  Elec       q    Type
REMARK                         _______ _______ _______ _____ _____    ______ ____
ROOT
ATOM      1  C   UNL     1       1.848   3.000 -22.963  0.00  0.00    +0.138 A 
ATOM      2  C   UNL     1       2.514   4.092 -23.205  0.00  0.00    +0.092 A 
ATOM      3  C   UNL     1       1.883   5.221 -23.334  0.00  0.00    +0.124 A 
ATOM      4  C   UNL     1       0.589   5.260 -23.221  0.00  0.00    +0.092 A 
ATOM      5  C   UNL     1      -0.076   4.169 -22.980  0.00  0.00    +0.139 A 
ATOM      6  O   UNL     1      -1.370   4.208 -22.867  0.00  0.00    -0.483 OA
ATOM      7  C   UNL     1      -2.035   3.117 -22.626  0.00  0.00    +0.211 C 
ATOM      8  C   UNL     1      -1.405   1.987 -22.497  0.00  0.00    +0.129 C 
ATOM      9  C   UNL     1      -0.110   1.949 -22.610  0.00  0.00    +0.174 C 
ATOM     10  O   UNL     1       0.520   0.819 -22.481  0.00  0.00    -0.292 OA
ATOM     11  C   UNL     1       0.554   3.039 -22.851  0.00  0.00    +0.101 A 
ENDROOT
BRANCH   7  12
ATOM     12  C   UNL     1      -3.329   3.156 -22.513  0.00  0.00    -0.007 A 
ATOM     13  C   UNL     1      -3.906   2.651 -21.464  0.00  0.00    +0.007 A 
ATOM     14  C   UNL     1      -5.201   2.690 -21.351  0.00  0.00    +0.000 A 
ATOM     15  C   UNL     1      -5.918   3.234 -22.288  0.00  0.00    +0.000 A 
ATOM     16  C   UNL     1      -5.341   3.739 -23.338  0.00  0.00    +0.000 A 
ATOM     17  C   UNL     1      -4.047   3.700 -23.451  0.00  0.00    +0.007 A 
ENDBRANCH   7  12
BRANCH   1  19
ATOM     18  C   UNL     1       3.762   1.816 -23.029  0.00  0.00    +0.277 C 
ATOM     19  O   UNL     1       2.478   1.870 -22.834  0.00  0.00    -0.494 OA
ENDBRANCH   1  19
BRANCH   3  20
ATOM     20  O   UNL     1       2.548   6.311 -23.575  0.00  0.00    -0.507 OA
ATOM     21  H   UNL     1       2.096   7.127 -23.667  0.00  0.00    +0.292 HD
ENDBRANCH   3  20
TORSDOF 3
ENDMDL
MODEL 3
REMARK VINA RESULT:    -9.254      1.606      2.869
REMARK INTER + INTRA:         -11.174
REMARK INTER:                 -10.593
REMARK INTRA:                  -0.581
REMARK UNBOUND:                -0.567
REMARK  Name = ZINC000000338038
REMARK  4 active torsions:
REMARK  status: ('A' for Active; 'I' for Inactive)
REMARK    1  A    between atoms: C_1  and  O_2
REMARK    2  A    between atoms: O_2  and  C_3
REMARK    3  A    between atoms: C_5  and  O_6
REMARK    4  A    between atoms: C_13  and  C_14
REMARK                            x       y       z     vdW  Elec       q    Type
REMARK                         _______ _______ _______ _____ _____    ______ ____
ROOT
ATOM      1  C   UNL     1       2.291   1.274 -22.106  0.00  0.00    +0.138 A 
ATOM      2  C   UNL     1       3.193   1.335 -23.040  0.00  0.00    +0.092 A 
ATOM      3  C   UNL     1       2.888   1.819 -24.207  0.00  0.00    +0.124 A 
ATOM      4  C   UNL     1       1.681   2.241 -24.441  0.00  0.00    +0.092 A 
ATOM      5  C   UNL     1       0.779   2.180 -23.507  0.00  0.00    +0.139 A 
ATOM      6  O   UNL     1      -0.427   2.602 -23.741  0.00  0.00    -0.483 OA
ATOM      7  C   UNL     1      -1.330   2.542 -22.807  0.00  0.00    +0.211 C 
ATOM      8  C   UNL     1      -1.026   2.058 -21.639  0.00  0.00    +0.129 C 
ATOM      9  C   UNL     1       0.182   1.636 -21.406  0.00  0.00    +0.174 C 
ATOM     10  O   UNL     1       0.487   1.152 -20.238  0.00  0.00    -0.292 OA
ATOM     11  C   UNL     1       1.084   1.697 -22.339  0.00  0.00    +0.101 A 
ENDROOT
BRANCH   7  12
ATOM     12  C   UNL     1      -2.537   2.964 -23.041  0.00  0.00    -0.007 A 
ATOM     13  C   UNL     1      -3.421   2.964 -22.088  0.00  0.00    +0.007 A 
ATOM     14  C   UNL     1      -4.629   3.387 -22.321  0.00  0.00    +0.000 A 
ATOM     15  C   UNL     1      -4.951   3.809 -23.508  0.00  0.00    +0.000 A 
ATOM     16  C   UNL     1      -4.066   3.808 -24.461  0.00  0.00    +0.000 A 
ATOM     17  C   UNL     1      -2.859   3.386 -24.227  0.00  0.00    +0.007 A 
ENDBRANCH   7  12
BRANCH   1  19
ATOM     18  C   UNL     1       3.804   0.375 -20.702  0.00  0.00    +0.277 C 
ATOM     19  O   UNL     1       2.595   0.791 -20.938  0.00  0.00    -0.494 OA
ENDBRANCH   1  19
BRANCH   3  20
ATOM     20  O   UNL     1       3.791   1.879 -25.140  0.00  0.00    -0.507 OA
ATOM     21  H   UNL     1       4.219   2.692 -25.327  0.00  0.00    +0.292 HD
ENDBRANCH   3  20
TORSDOF 3
ENDMDL
MODEL 4
REMARK VINA RESULT:    -9.056      1.977      6.487
REMARK INTER + INTRA:         -10.946
REMARK INTER:                 -10.447
REMARK INTRA:                  -0.499
REMARK UNBOUND:                -0.567
REMARK  Name = ZINC000000338038
REMARK  4 active torsions:
REMARK  status: ('A' for Active; 'I' for Inactive)
REMARK    1  A    between atoms: C_1  and  O_2
REMARK    2  A    between atoms: O_2  and  C_3
REMARK    3  A    between atoms: C_5  and  O_6
REMARK    4  A    between atoms: C_13  and  C_14
REMARK                            x       y       z     vdW  Elec       q    Type
REMARK                         _______ _______ _______ _____ _____    ______ ____
ROOT
ATOM      1  C   UNL     1      -4.606   3.404 -22.679  0.00  0.00    +0.138 A 
ATOM      2  C   UNL     1      -5.126   3.847 -23.786  0.00  0.00    +0.092 A 
ATOM      3  C   UNL     1      -4.367   4.058 -24.821  0.00  0.00    +0.124 A 
ATOM      4  C   UNL     1      -3.090   3.827 -24.749  0.00  0.00    +0.092 A 
ATOM      5  C   UNL     1      -2.571   3.384 -23.642  0.00  0.00    +0.139 A 
ATOM      6  O   UNL     1      -1.294   3.153 -23.571  0.00  0.00    -0.483 OA
ATOM      7  C   UNL     1      -0.775   2.711 -22.464  0.00  0.00    +0.211 C 
ATOM      8  C   UNL     1      -1.533   2.499 -21.429  0.00  0.00    +0.129 C 
ATOM      9  C   UNL     1      -2.810   2.730 -21.501  0.00  0.00    +0.174 C 
ATOM     10  O   UNL     1      -3.568   2.519 -20.467  0.00  0.00    -0.292 OA
ATOM     11  C   UNL     1      -3.329   3.173 -22.608  0.00  0.00    +0.101 A 
ENDROOT
BRANCH   7  12
ATOM     12  C   UNL     1       0.502   2.479 -22.392  0.00  0.00    -0.007 A 
ATOM     13  C   UNL     1       1.335   3.219 -23.063  0.00  0.00    +0.007 A 
ATOM     14  C   UNL     1       2.613   2.988 -22.991  0.00  0.00    +0.000 A 
ATOM     15  C   UNL     1       3.057   2.018 -22.249  0.00  0.00    +0.000 A 
ATOM     16  C   UNL     1       2.224   1.278 -21.578  0.00  0.00    +0.000 A 
ATOM     17  C   UNL     1       0.947   1.509 -21.650  0.00  0.00    +0.007 A 
ENDBRANCH   7  12
BRANCH   1  19
ATOM     18  C   UNL     1      -6.557   2.700 -21.802  0.00  0.00    +0.277 C 
ATOM     19  O   UNL     1      -5.364   3.192 -21.645  0.00  0.00    -0.494 OA
ENDBRANCH   1  19
BRANCH   3  20
ATOM     20  O   UNL     1      -4.887   4.501 -25.927  0.00  0.00    -0.507 OA
ATOM     21  H   UNL     1      -4.447   5.166 -26.419  0.00  0.00    +0.292 HD
ENDBRANCH   3  20
TORSDOF 3
ENDMDL
MODEL 5
REMARK VINA RESULT:    -8.644      1.787      2.231
REMARK INTER + INTRA:         -10.474
REMARK INTER:                  -9.918
REMARK INTRA:                  -0.556
REMARK UNBOUND:                -0.567
REMARK  Name = ZINC000000338038
REMARK  4 active torsions:
REMARK  status: ('A' for Active; 'I' for Inactive)
REMARK    1  A    between atoms: C_1  and  O_2
REMARK    2  A    between atoms: O_2  and  C_3
REMARK    3  A    between atoms: C_5  and  O_6
REMARK    4  A    between atoms: C_13  and  C_14
REMARK                            x       y       z     vdW  Elec       q    Type
REMARK                         _______ _______ _______ _____ _____    ______ ____
ROOT
ATOM      1  C   UNL     1       3.660   3.766 -23.136  0.00  0.00    +0.138 A 
ATOM      2  C   UNL     1       4.340   2.659 -23.073  0.00  0.00    +0.092 A 
ATOM      3  C   UNL     1       3.760   1.525 -23.335  0.00  0.00    +0.124 A 
ATOM      4  C   UNL     1       2.501   1.498 -23.659  0.00  0.00    +0.092 A 
ATOM      5  C   UNL     1       1.823   2.604 -23.722  0.00  0.00    +0.139 A 
ATOM      6  O   UNL     1       0.564   2.577 -24.047  0.00  0.00    -0.483 OA
ATOM      7  C   UNL     1      -0.115   3.684 -24.110  0.00  0.00    +0.211 C 
ATOM      8  C   UNL     1       0.464   4.818 -23.849  0.00  0.00    +0.129 C 
ATOM      9  C   UNL     1       1.723   4.845 -23.524  0.00  0.00    +0.174 C 
ATOM     10  O   UNL     1       2.302   5.979 -23.262  0.00  0.00    -0.292 OA
ATOM     11  C   UNL     1       2.402   3.738 -23.461  0.00  0.00    +0.101 A 
ENDROOT
BRANCH   7  12
ATOM     12  C   UNL     1      -1.373   3.657 -24.435  0.00  0.00    -0.007 A 
ATOM     13  C   UNL     1      -1.721   3.470 -25.673  0.00  0.00    +0.007 A 
ATOM     14  C   UNL     1      -2.980   3.443 -25.998  0.00  0.00    +0.000 A 
ATOM     15  C   UNL     1      -3.891   3.602 -25.084  0.00  0.00    +0.000 A 
ATOM     16  C   UNL     1      -3.542   3.788 -23.845  0.00  0.00    +0.000 A 
ATOM     17  C   UNL     1      -2.284   3.816 -23.521  0.00  0.00    +0.007 A 
ENDBRANCH   7  12
BRANCH   1  19
ATOM     18  C   UNL     1       5.536   4.968 -22.808  0.00  0.00    +0.277 C 
ATOM     19  O   UNL     1       4.239   4.900 -22.875  0.00  0.00    -0.494 OA
ENDBRANCH   1  19
BRANCH   3  20
ATOM     20  O   UNL     1       4.440   0.419 -23.272  0.00  0.00    -0.507 OA
ATOM     21  H   UNL     1       5.135   0.260 -23.880  0.00  0.00    +0.292 HD
ENDBRANCH   3  20
TORSDOF 3
ENDMDL
MODEL 6
REMARK VINA RESULT:    -8.452      1.831      6.024
REMARK INTER + INTRA:         -10.255
REMARK INTER:                  -9.702
REMARK INTRA:                  -0.553
REMARK UNBOUND:                -0.567
REMARK  Name = ZINC000000338038
REMARK  4 active torsions:
REMARK  status: ('A' for Active; 'I' for Inactive)
REMARK    1  A    between atoms: C_1  and  O_2
REMARK    2  A    between atoms: O_2  and  C_3
REMARK    3  A    between atoms: C_5  and  O_6
REMARK    4  A    between atoms: C_13  and  C_14
REMARK                            x       y       z     vdW  Elec       q    Type
REMARK                         _______ _______ _______ _____ _____    ______ ____
ROOT
ATOM      1  C   UNL     1      -3.285   3.286 -23.548  0.00  0.00    +0.138 A 
ATOM      2  C   UNL     1      -3.926   3.081 -22.436  0.00  0.00    +0.092 A 
ATOM      3  C   UNL     1      -3.267   2.857 -21.338  0.00  0.00    +0.124 A 
ATOM      4  C   UNL     1      -1.967   2.837 -21.353  0.00  0.00    +0.092 A 
ATOM      5  C   UNL     1      -1.327   3.042 -22.465  0.00  0.00    +0.139 A 
ATOM      6  O   UNL     1      -0.027   3.022 -22.479  0.00  0.00    -0.483 OA
ATOM      7  C   UNL     1       0.614   3.227 -23.592  0.00  0.00    +0.211 C 
ATOM      8  C   UNL     1      -0.045   3.452 -24.690  0.00  0.00    +0.129 C 
ATOM      9  C   UNL     1      -1.345   3.472 -24.675  0.00  0.00    +0.174 C 
ATOM     10  O   UNL     1      -2.004   3.696 -25.773  0.00  0.00    -0.292 OA
ATOM     11  C   UNL     1      -1.986   3.267 -23.563  0.00  0.00    +0.101 A 
ENDROOT
BRANCH   7  12
ATOM     12  C   UNL     1       1.914   3.207 -23.607  0.00  0.00    -0.007 A 
ATOM     13  C   UNL     1       2.543   2.137 -23.991  0.00  0.00    +0.007 A 
ATOM     14  C   UNL     1       3.843   2.117 -24.005  0.00  0.00    +0.000 A 
ATOM     15  C   UNL     1       4.513   3.167 -23.636  0.00  0.00    +0.000 A 
ATOM     16  C   UNL     1       3.883   4.238 -23.252  0.00  0.00    +0.000 A 
ATOM     17  C   UNL     1       2.584   4.258 -23.237  0.00  0.00    +0.007 A 
ENDBRANCH   7  12
BRANCH   1  19
ATOM     18  C   UNL     1      -5.190   3.877 -24.593  0.00  0.00    +0.277 C 
ATOM     19  O   UNL     1      -3.944   3.511 -24.646  0.00  0.00    -0.494 OA
ENDBRANCH   1  19
BRANCH   3  20
ATOM     20  O   UNL     1      -3.908   2.652 -20.226  0.00  0.00    -0.507 OA
ATOM     21  H   UNL     1      -4.493   3.305 -19.895  0.00  0.00    +0.292 HD
ENDBRANCH   3  20
TORSDOF 3
ENDMDL
MODEL 7
REMARK VINA RESULT:    -8.440      1.596      3.120
REMARK INTER + INTRA:         -10.240
REMARK INTER:                  -9.694
REMARK INTRA:                  -0.546
REMARK UNBOUND:                -0.567
REMARK  Name = ZINC000000338038
REMARK  4 active torsions:
REMARK  status: ('A' for Active; 'I' for Inactive)
REMARK    1  A    between atoms: C_1  and  O_2
REMARK    2  A    between atoms: O_2  and  C_3
REMARK    3  A    between atoms: C_5  and  O_6
REMARK    4  A    between atoms: C_13  and  C_14
REMARK                            x       y       z     vdW  Elec       q    Type
REMARK                         _______ _______ _______ _____ _____    ______ ____
ROOT
ATOM      1  C   UNL     1       2.843   2.420 -22.340  0.00  0.00    +0.138 A 
ATOM      2  C   UNL     1       3.833   3.255 -22.458  0.00  0.00    +0.092 A 
ATOM      3  C   UNL     1       3.667   4.370 -23.106  0.00  0.00    +0.124 A 
ATOM      4  C   UNL     1       2.514   4.650 -23.635  0.00  0.00    +0.092 A 
ATOM      5  C   UNL     1       1.525   3.815 -23.516  0.00  0.00    +0.139 A 
ATOM      6  O   UNL     1       0.371   4.095 -24.045  0.00  0.00    -0.483 OA
ATOM      7  C   UNL     1      -0.619   3.260 -23.926  0.00  0.00    +0.211 C 
ATOM      8  C   UNL     1      -0.454   2.145 -23.278  0.00  0.00    +0.129 C 
ATOM      9  C   UNL     1       0.700   1.865 -22.749  0.00  0.00    +0.174 C 
ATOM     10  O   UNL     1       0.865   0.750 -22.102  0.00  0.00    -0.292 OA
ATOM     11  C   UNL     1       1.689   2.700 -22.868  0.00  0.00    +0.101 A 
ENDROOT
BRANCH   7  12
ATOM     12  C   UNL     1      -1.773   3.540 -24.454  0.00  0.00    -0.007 A 
ATOM     13  C   UNL     1      -1.956   3.389 -25.732  0.00  0.00    +0.007 A 
ATOM     14  C   UNL     1      -3.110   3.669 -26.262  0.00  0.00    +0.000 A 
ATOM     15  C   UNL     1      -4.081   4.100 -25.512  0.00  0.00    +0.000 A 
ATOM     16  C   UNL     1      -3.897   4.251 -24.234  0.00  0.00    +0.000 A 
ATOM     17  C   UNL     1      -2.744   3.971 -23.705  0.00  0.00    +0.007 A 
ENDBRANCH   7  12
BRANCH   1  19
ATOM     18  C   UNL     1       4.200   0.810 -21.542  0.00  0.00    +0.277 C 
ATOM     19  O   UNL     1       3.008   1.304 -21.692  0.00  0.00    -0.494 OA
ENDBRANCH   1  19
BRANCH   3  20
ATOM     20  O   UNL     1       4.657   5.204 -23.224  0.00  0.00    -0.507 OA
ATOM     21  H   UNL     1       5.127   5.263 -24.033  0.00  0.00    +0.292 HD
ENDBRANCH   3  20
TORSDOF 3
ENDMDL
MODEL 8
REMARK VINA RESULT:    -6.538      3.435      5.868
REMARK INTER + INTRA:          -8.060
REMARK INTER:                  -7.488
REMARK INTRA:                  -0.572
REMARK UNBOUND:                -0.567
REMARK  Name = ZINC000000338038
REMARK  4 active torsions:
REMARK  status: ('A' for Active; 'I' for Inactive)
REMARK    1  A    between atoms: C_1  and  O_2
REMARK    2  A    between atoms: O_2  and  C_3
REMARK    3  A    between atoms: C_5  and  O_6
REMARK    4  A    between atoms: C_13  and  C_14
REMARK                            x       y       z     vdW  Elec       q    Type
REMARK                         _______ _______ _______ _____ _____    ______ ____
ROOT
ATOM      1  C   UNL     1       6.399   6.214 -21.892  0.00  0.00    +0.138 A 
ATOM      2  C   UNL     1       6.542   7.362 -21.298  0.00  0.00    +0.092 A 
ATOM      3  C   UNL     1       5.519   8.151 -21.154  0.00  0.00    +0.124 A 
ATOM      4  C   UNL     1       4.353   7.792 -21.604  0.00  0.00    +0.092 A 
ATOM      5  C   UNL     1       4.211   6.645 -22.198  0.00  0.00    +0.139 A 
ATOM      6  O   UNL     1       3.045   6.286 -22.647  0.00  0.00    -0.483 OA
ATOM      7  C   UNL     1       2.902   5.138 -23.241  0.00  0.00    +0.211 C 
ATOM      8  C   UNL     1       3.925   4.349 -23.385  0.00  0.00    +0.129 C 
ATOM      9  C   UNL     1       5.091   4.708 -22.935  0.00  0.00    +0.174 C 
ATOM     10  O   UNL     1       6.114   3.919 -23.079  0.00  0.00    -0.292 OA
ATOM     11  C   UNL     1       5.234   5.855 -22.341  0.00  0.00    +0.101 A 
ENDROOT
BRANCH   7  12
ATOM     12  C   UNL     1       1.737   4.780 -23.691  0.00  0.00    -0.007 A 
ATOM     13  C   UNL     1       0.660   5.106 -23.039  0.00  0.00    +0.007 A 
ATOM     14  C   UNL     1      -0.506   4.748 -23.489  0.00  0.00    +0.000 A 
ATOM     15  C   UNL     1      -0.595   4.063 -24.590  0.00  0.00    +0.000 A 
ATOM     16  C   UNL     1       0.482   3.736 -25.241  0.00  0.00    +0.000 A 
ATOM     17  C   UNL     1       1.647   4.094 -24.792  0.00  0.00    +0.007 A 
ENDBRANCH   7  12
BRANCH   1  19
ATOM     18  C   UNL     1       8.617   5.849 -21.748  0.00  0.00    +0.277 C 
ATOM     19  O   UNL     1       7.422   5.425 -22.036  0.00  0.00    -0.494 OA
ENDBRANCH   1  19
BRANCH   3  20
ATOM     20  O   UNL     1       5.663   9.298 -20.561  0.00  0.00    -0.507 OA
ATOM     21  H   UNL     1       5.736   9.338 -19.627  0.00  0.00    +0.292 HD
ENDBRANCH   3  20
TORSDOF 3
ENDMDL
