MODEL 1
REMARK VINA RESULT:    -9.154      0.000      0.000
REMARK INTER + INTRA:         -16.678
REMARK INTER:                 -14.119
REMARK INTRA:                  -2.559
REMARK UNBOUND:                -1.637
REMARK  Name = CCCCCCCCCCCc1c2oc3ccc([N+](=O)[O-])cc3[nH]c-2cc(=O)c1=O              ZINC000100392915
REMARK  12 active torsions:
REMARK  status: ('A' for Active; 'I' for Inactive)
REMARK    1  A    between atoms: C_1  and  C_2
REMARK    2  A    between atoms: C_2  and  C_3
REMARK    3  A    between atoms: C_3  and  C_4
REMARK    4  A    between atoms: C_4  and  C_5
REMARK    5  A    between atoms: C_5  and  C_6
REMARK    6  A    between atoms: C_6  and  C_7
REMARK    7  A    between atoms: C_7  and  C_8
REMARK    8  A    between atoms: C_8  and  C_9
REMARK    9  A    between atoms: C_9  and  C_10
REMARK   10  A    between atoms: C_10  and  C_11
REMARK   11  A    between atoms: C_11  and  C_12
REMARK   12  A    between atoms: C_18  and  N_19
REMARK                            x       y       z     vdW  Elec       q    Type
REMARK                         _______ _______ _______ _____ _____    ______ ____
ROOT
ATOM      1  C   UNL     1       2.759   3.388 -24.080  0.00  0.00    +0.047 A 
ATOM      2  C   UNL     1       1.504   3.730 -24.035  0.00  0.00    +0.159 A 
ATOM      3  O   UNL     1       0.601   2.957 -24.561  0.00  0.00    -0.451 OA
ATOM      4  C   UNL     1      -0.653   3.300 -24.516  0.00  0.00    +0.152 A 
ATOM      5  C   UNL     1      -1.558   2.527 -25.041  0.00  0.00    +0.055 A 
ATOM      6  C   UNL     1      -2.811   2.870 -24.996  0.00  0.00    +0.088 A 
ATOM      7  C   UNL     1      -3.161   3.985 -24.426  0.00  0.00    +0.275 A 
ATOM      8  C   UNL     1      -2.255   4.757 -23.901  0.00  0.00    +0.113 A 
ATOM      9  C   UNL     1      -1.003   4.415 -23.946  0.00  0.00    +0.089 A 
ATOM     10  N   UNL     1      -0.099   5.187 -23.421  0.00  0.00    -0.349 N 
ATOM     11  H   UNL     1      -0.364   6.031 -22.990  0.00  0.00    +0.166 HD
ATOM     12  C   UNL     1       1.155   4.845 -23.466  0.00  0.00    +0.087 A 
ATOM     13  C   UNL     1       2.057   5.618 -22.941  0.00  0.00    +0.084 A 
ATOM     14  C   UNL     1       3.312   5.277 -22.984  0.00  0.00    +0.228 A 
ATOM     15  O   UNL     1       4.214   6.050 -22.459  0.00  0.00    -0.284 OA
ATOM     16  C   UNL     1       3.661   4.162 -23.554  0.00  0.00    +0.232 A 
ATOM     17  O   UNL     1       4.915   3.820 -23.598  0.00  0.00    -0.283 OA
ENDROOT
BRANCH   7  18
ATOM     18  N   UNL     1      -4.413   4.328 -24.381  0.00  0.00    +0.080 N 
ATOM     19  O   UNL     1      -5.177   3.875 -23.433  0.00  0.00    -0.576 OA
ATOM     20  O   UNL     1      -4.902   5.123 -25.285  0.00  0.00    +0.041 OA
ENDBRANCH   7  18
BRANCH   1  21
ATOM     21  C   UNL     1       3.107   2.273 -24.650  0.00  0.00    +0.043 C 
BRANCH  21  22
ATOM     22  C   UNL     1       2.786   1.136 -24.107  0.00  0.00    +0.005 C 
BRANCH  22  23
ATOM     23  C   UNL     1       3.406   0.724 -23.041  0.00  0.00    +0.000 C 
BRANCH  23  24
ATOM     24  C   UNL     1       2.742   0.508 -21.945  0.00  0.00    +0.000 C 
BRANCH  24  25
ATOM     25  C   UNL     1       2.335   1.509 -21.222  0.00  0.00    +0.000 C 
BRANCH  25  26
ATOM     26  C   UNL     1       1.157   1.479 -20.673  0.00  0.00    +0.000 C 
BRANCH  26  27
ATOM     27  C   UNL     1       0.092   1.475 -21.419  0.00  0.00    -0.000 C 
BRANCH  27  28
ATOM     28  C   UNL     1      -0.921   2.227 -21.109  0.00  0.00    -0.000 C 
BRANCH  28  29
ATOM     29  C   UNL     1      -2.126   1.861 -21.431  0.00  0.00    -0.000 C 
BRANCH  29  31
ATOM     30  C   UNL     1      -2.962   3.653 -20.354  0.00  0.00    +0.004 C 
ATOM     31  C   UNL     1      -3.142   2.594 -21.087  0.00  0.00    -0.003 C 
ENDBRANCH  29  31
ENDBRANCH  28  29
ENDBRANCH  27  28
ENDBRANCH  26  27
ENDBRANCH  25  26
ENDBRANCH  24  25
ENDBRANCH  23  24
ENDBRANCH  22  23
ENDBRANCH  21  22
ENDBRANCH   1  21
TORSDOF 11
ENDMDL
MODEL 2
REMARK VINA RESULT:    -8.466      3.127      6.873
REMARK INTER + INTRA:         -15.547
REMARK INTER:                 -14.159
REMARK INTRA:                  -1.388
REMARK UNBOUND:                -1.637
REMARK  Name = CCCCCCCCCCCc1c2oc3ccc([N+](=O)[O-])cc3[nH]c-2cc(=O)c1=O              ZINC000100392915
REMARK  12 active torsions:
REMARK  status: ('A' for Active; 'I' for Inactive)
REMARK    1  A    between atoms: C_1  and  C_2
REMARK    2  A    between atoms: C_2  and  C_3
REMARK    3  A    between atoms: C_3  and  C_4
REMARK    4  A    between atoms: C_4  and  C_5
REMARK    5  A    between atoms: C_5  and  C_6
REMARK    6  A    between atoms: C_6  and  C_7
REMARK    7  A    between atoms: C_7  and  C_8
REMARK    8  A    between atoms: C_8  and  C_9
REMARK    9  A    between atoms: C_9  and  C_10
REMARK   10  A    between atoms: C_10  and  C_11
REMARK   11  A    between atoms: C_11  and  C_12
REMARK   12  A    between atoms: C_18  and  N_19
REMARK                            x       y       z     vdW  Elec       q    Type
REMARK                         _______ _______ _______ _____ _____    ______ ____
ROOT
ATOM      1  C   UNL     1       1.946   4.034 -23.747  0.00  0.00    +0.047 A 
ATOM      2  C   UNL     1       3.045   4.562 -23.291  0.00  0.00    +0.159 A 
ATOM      3  O   UNL     1       3.059   5.806 -22.913  0.00  0.00    -0.451 OA
ATOM      4  C   UNL     1       4.158   6.332 -22.458  0.00  0.00    +0.152 A 
ATOM      5  C   UNL     1       4.174   7.577 -22.080  0.00  0.00    +0.055 A 
ATOM      6  C   UNL     1       5.272   8.103 -21.624  0.00  0.00    +0.088 A 
ATOM      7  C   UNL     1       6.354   7.387 -21.546  0.00  0.00    +0.275 A 
ATOM      8  C   UNL     1       6.337   6.143 -21.924  0.00  0.00    +0.113 A 
ATOM      9  C   UNL     1       5.240   5.616 -22.379  0.00  0.00    +0.089 A 
ATOM     10  N   UNL     1       5.224   4.373 -22.757  0.00  0.00    -0.349 N 
ATOM     11  H   UNL     1       6.043   3.830 -22.698  0.00  0.00    +0.166 HD
ATOM     12  C   UNL     1       4.126   3.845 -23.213  0.00  0.00    +0.087 A 
ATOM     13  C   UNL     1       4.112   2.602 -23.590  0.00  0.00    +0.084 A 
ATOM     14  C   UNL     1       3.014   2.073 -24.046  0.00  0.00    +0.228 A 
ATOM     15  O   UNL     1       3.000   0.830 -24.423  0.00  0.00    -0.284 OA
ATOM     16  C   UNL     1       1.933   2.791 -24.124  0.00  0.00    +0.232 A 
ATOM     17  O   UNL     1       0.835   2.262 -24.580  0.00  0.00    -0.283 OA
ENDROOT
BRANCH   7  18
ATOM     18  N   UNL     1       7.451   7.913 -21.091  0.00  0.00    +0.080 N 
ATOM     19  O   UNL     1       7.401   8.977 -20.346  0.00  0.00    -0.576 OA
ATOM     20  O   UNL     1       8.599   7.375 -21.379  0.00  0.00    +0.041 OA
ENDBRANCH   7  18
BRANCH   1  21
ATOM     21  C   UNL     1       0.866   4.751 -23.825  0.00  0.00    +0.043 C 
BRANCH  21  22
ATOM     22  C   UNL     1      -0.074   4.612 -22.936  0.00  0.00    +0.005 C 
BRANCH  22  23
ATOM     23  C   UNL     1      -1.304   4.902 -23.239  0.00  0.00    +0.000 C 
BRANCH  23  24
ATOM     24  C   UNL     1      -1.882   4.318 -24.246  0.00  0.00    +0.000 C 
BRANCH  24  25
ATOM     25  C   UNL     1      -3.160   4.466 -24.439  0.00  0.00    +0.000 C 
BRANCH  25  26
ATOM     26  C   UNL     1      -3.981   3.516 -24.106  0.00  0.00    +0.000 C 
BRANCH  26  27
ATOM     27  C   UNL     1      -5.094   3.803 -23.496  0.00  0.00    -0.000 C 
BRANCH  27  28
ATOM     28  C   UNL     1      -5.256   3.470 -22.250  0.00  0.00    -0.000 C 
BRANCH  28  29
ATOM     29  C   UNL     1      -4.404   2.677 -21.673  0.00  0.00    -0.000 C 
BRANCH  29  31
ATOM     30  C   UNL     1      -3.073   3.843 -20.279  0.00  0.00    +0.004 C 
ATOM     31  C   UNL     1      -3.986   2.937 -20.469  0.00  0.00    -0.003 C 
ENDBRANCH  29  31
ENDBRANCH  28  29
ENDBRANCH  27  28
ENDBRANCH  26  27
ENDBRANCH  25  26
ENDBRANCH  24  25
ENDBRANCH  23  24
ENDBRANCH  22  23
ENDBRANCH  21  22
ENDBRANCH   1  21
TORSDOF 11
ENDMDL
MODEL 3
REMARK VINA RESULT:    -8.305      2.537      6.649
REMARK INTER + INTRA:         -15.282
REMARK INTER:                 -14.294
REMARK INTRA:                  -0.988
REMARK UNBOUND:                -1.637
REMARK  Name = CCCCCCCCCCCc1c2oc3ccc([N+](=O)[O-])cc3[nH]c-2cc(=O)c1=O              ZINC000100392915
REMARK  12 active torsions:
REMARK  status: ('A' for Active; 'I' for Inactive)
REMARK    1  A    between atoms: C_1  and  C_2
REMARK    2  A    between atoms: C_2  and  C_3
REMARK    3  A    between atoms: C_3  and  C_4
REMARK    4  A    between atoms: C_4  and  C_5
REMARK    5  A    between atoms: C_5  and  C_6
REMARK    6  A    between atoms: C_6  and  C_7
REMARK    7  A    between atoms: C_7  and  C_8
REMARK    8  A    between atoms: C_8  and  C_9
REMARK    9  A    between atoms: C_9  and  C_10
REMARK   10  A    between atoms: C_10  and  C_11
REMARK   11  A    between atoms: C_11  and  C_12
REMARK   12  A    between atoms: C_18  and  N_19
REMARK                            x       y       z     vdW  Elec       q    Type
REMARK                         _______ _______ _______ _____ _____    ______ ____
ROOT
ATOM      1  C   UNL     1       0.170   2.229 -23.101  0.00  0.00    +0.047 A 
ATOM      2  C   UNL     1       1.416   2.606 -23.093  0.00  0.00    +0.159 A 
ATOM      3  O   UNL     1       2.208   2.208 -22.142  0.00  0.00    -0.451 OA
ATOM      4  C   UNL     1       3.453   2.586 -22.135  0.00  0.00    +0.152 A 
ATOM      5  C   UNL     1       4.246   2.188 -21.183  0.00  0.00    +0.055 A 
ATOM      6  C   UNL     1       5.490   2.565 -21.176  0.00  0.00    +0.088 A 
ATOM      7  C   UNL     1       5.942   3.339 -22.118  0.00  0.00    +0.275 A 
ATOM      8  C   UNL     1       5.148   3.735 -23.068  0.00  0.00    +0.113 A 
ATOM      9  C   UNL     1       3.905   3.359 -23.076  0.00  0.00    +0.089 A 
ATOM     10  N   UNL     1       3.111   3.755 -24.026  0.00  0.00    -0.349 N 
ATOM     11  H   UNL     1       3.453   4.341 -24.740  0.00  0.00    +0.166 HD
ATOM     12  C   UNL     1       1.867   3.379 -24.035  0.00  0.00    +0.087 A 
ATOM     13  C   UNL     1       1.075   3.776 -24.985  0.00  0.00    +0.084 A 
ATOM     14  C   UNL     1      -0.170   3.400 -24.995  0.00  0.00    +0.228 A 
ATOM     15  O   UNL     1      -0.962   3.797 -25.946  0.00  0.00    -0.284 OA
ATOM     16  C   UNL     1      -0.621   2.627 -24.052  0.00  0.00    +0.232 A 
ATOM     17  O   UNL     1      -1.866   2.250 -24.062  0.00  0.00    -0.283 OA
ENDROOT
BRANCH   7  18
ATOM     18  N   UNL     1       7.185   3.716 -22.111  0.00  0.00    +0.080 N 
ATOM     19  O   UNL     1       7.924   3.541 -23.166  0.00  0.00    -0.576 OA
ATOM     20  O   UNL     1       7.691   4.267 -21.048  0.00  0.00    +0.041 OA
ENDBRANCH   7  18
BRANCH   1  21
ATOM     21  C   UNL     1      -0.280   1.456 -22.159  0.00  0.00    +0.043 C 
BRANCH  21  22
ATOM     22  C   UNL     1      -0.798   1.972 -21.084  0.00  0.00    +0.005 C 
BRANCH  22  23
ATOM     23  C   UNL     1      -2.068   2.246 -21.039  0.00  0.00    +0.000 C 
BRANCH  23  24
ATOM     24  C   UNL     1      -2.464   3.446 -20.735  0.00  0.00    +0.000 C 
BRANCH  24  25
ATOM     25  C   UNL     1      -3.714   3.775 -20.881  0.00  0.00    +0.000 C 
BRANCH  25  26
ATOM     26  C   UNL     1      -4.536   2.960 -21.472  0.00  0.00    +0.000 C 
BRANCH  26  27
ATOM     27  C   UNL     1      -5.514   3.428 -22.189  0.00  0.00    -0.000 C 
BRANCH  27  28
ATOM     28  C   UNL     1      -5.440   3.402 -23.487  0.00  0.00    -0.000 C 
BRANCH  28  29
ATOM     29  C   UNL     1      -5.054   4.459 -24.137  0.00  0.00    -0.000 C 
BRANCH  29  31
ATOM     30  C   UNL     1      -4.462   3.337 -25.998  0.00  0.00    +0.004 C 
ATOM     31  C   UNL     1      -4.292   4.336 -25.183  0.00  0.00    -0.003 C 
ENDBRANCH  29  31
ENDBRANCH  28  29
ENDBRANCH  27  28
ENDBRANCH  26  27
ENDBRANCH  25  26
ENDBRANCH  24  25
ENDBRANCH  23  24
ENDBRANCH  22  23
ENDBRANCH  21  22
ENDBRANCH   1  21
TORSDOF 11
ENDMDL
MODEL 4
REMARK VINA RESULT:    -8.065      1.698      2.357
REMARK INTER + INTRA:         -14.888
REMARK INTER:                 -12.740
REMARK INTRA:                  -2.148
REMARK UNBOUND:                -1.637
REMARK  Name = CCCCCCCCCCCc1c2oc3ccc([N+](=O)[O-])cc3[nH]c-2cc(=O)c1=O              ZINC000100392915
REMARK  12 active torsions:
REMARK  status: ('A' for Active; 'I' for Inactive)
REMARK    1  A    between atoms: C_1  and  C_2
REMARK    2  A    between atoms: C_2  and  C_3
REMARK    3  A    between atoms: C_3  and  C_4
REMARK    4  A    between atoms: C_4  and  C_5
REMARK    5  A    between atoms: C_5  and  C_6
REMARK    6  A    between atoms: C_6  and  C_7
REMARK    7  A    between atoms: C_7  and  C_8
REMARK    8  A    between atoms: C_8  and  C_9
REMARK    9  A    between atoms: C_9  and  C_10
REMARK   10  A    between atoms: C_10  and  C_11
REMARK   11  A    between atoms: C_11  and  C_12
REMARK   12  A    between atoms: C_18  and  N_19
REMARK                            x       y       z     vdW  Elec       q    Type
REMARK                         _______ _______ _______ _____ _____    ______ ____
ROOT
ATOM      1  C   UNL     1       4.952   4.430 -23.075  0.00  0.00    +0.047 A 
ATOM      2  C   UNL     1       3.681   4.527 -23.344  0.00  0.00    +0.159 A 
ATOM      3  O   UNL     1       3.069   3.551 -23.945  0.00  0.00    -0.451 OA
ATOM      4  C   UNL     1       1.800   3.650 -24.213  0.00  0.00    +0.152 A 
ATOM      5  C   UNL     1       1.185   2.673 -24.815  0.00  0.00    +0.055 A 
ATOM      6  C   UNL     1      -0.083   2.771 -25.082  0.00  0.00    +0.088 A 
ATOM      7  C   UNL     1      -0.738   3.844 -24.749  0.00  0.00    +0.275 A 
ATOM      8  C   UNL     1      -0.123   4.819 -24.148  0.00  0.00    +0.113 A 
ATOM      9  C   UNL     1       1.145   4.721 -23.880  0.00  0.00    +0.089 A 
ATOM     10  N   UNL     1       1.759   5.696 -23.279  0.00  0.00    -0.349 N 
ATOM     11  H   UNL     1       1.263   6.509 -23.027  0.00  0.00    +0.166 HD
ATOM     12  C   UNL     1       3.027   5.600 -23.010  0.00  0.00    +0.087 A 
ATOM     13  C   UNL     1       3.640   6.575 -22.410  0.00  0.00    +0.084 A 
ATOM     14  C   UNL     1       4.909   6.480 -22.140  0.00  0.00    +0.228 A 
ATOM     15  O   UNL     1       5.521   7.455 -21.539  0.00  0.00    -0.284 OA
ATOM     16  C   UNL     1       5.563   5.406 -22.474  0.00  0.00    +0.232 A 
ATOM     17  O   UNL     1       6.832   5.311 -22.205  0.00  0.00    -0.283 OA
ENDROOT
BRANCH   7  18
ATOM     18  N   UNL     1      -2.005   3.942 -25.017  0.00  0.00    +0.080 N 
ATOM     19  O   UNL     1      -2.797   4.565 -24.196  0.00  0.00    -0.576 OA
ATOM     20  O   UNL     1      -2.482   3.416 -26.106  0.00  0.00    +0.041 OA
ENDBRANCH   7  18
BRANCH   1  21
ATOM     21  C   UNL     1       5.605   3.358 -23.408  0.00  0.00    +0.043 C 
BRANCH  21  22
ATOM     22  C   UNL     1       5.999   2.524 -22.492  0.00  0.00    +0.005 C 
BRANCH  22  23
ATOM     23  C   UNL     1       5.143   2.034 -21.644  0.00  0.00    +0.000 C 
BRANCH  23  24
ATOM     24  C   UNL     1       4.746   0.802 -21.759  0.00  0.00    +0.000 C 
BRANCH  24  25
ATOM     25  C   UNL     1       3.584   0.447 -21.295  0.00  0.00    +0.000 C 
BRANCH  25  26
ATOM     26  C   UNL     1       2.501   0.769 -21.939  0.00  0.00    +0.000 C 
BRANCH  26  27
ATOM     27  C   UNL     1       1.590   1.493 -21.358  0.00  0.00    -0.000 C 
BRANCH  27  28
ATOM     28  C   UNL     1       0.334   1.299 -21.630  0.00  0.00    -0.000 C 
BRANCH  28  29
ATOM     29  C   UNL     1      -0.541   2.219 -21.352  0.00  0.00    -0.000 C 
BRANCH  29  31
ATOM     30  C   UNL     1      -2.712   2.784 -21.162  0.00  0.00    +0.004 C 
ATOM     31  C   UNL     1      -1.779   2.070 -21.719  0.00  0.00    -0.003 C 
ENDBRANCH  29  31
ENDBRANCH  28  29
ENDBRANCH  27  28
ENDBRANCH  26  27
ENDBRANCH  25  26
ENDBRANCH  24  25
ENDBRANCH  23  24
ENDBRANCH  22  23
ENDBRANCH  21  22
ENDBRANCH   1  21
TORSDOF 11
ENDMDL
MODEL 5
REMARK VINA RESULT:    -7.922      2.493      5.738
REMARK INTER + INTRA:         -14.654
REMARK INTER:                 -13.179
REMARK INTRA:                  -1.475
REMARK UNBOUND:                -1.637
REMARK  Name = CCCCCCCCCCCc1c2oc3ccc([N+](=O)[O-])cc3[nH]c-2cc(=O)c1=O              ZINC000100392915
REMARK  12 active torsions:
REMARK  status: ('A' for Active; 'I' for Inactive)
REMARK    1  A    between atoms: C_1  and  C_2
REMARK    2  A    between atoms: C_2  and  C_3
REMARK    3  A    between atoms: C_3  and  C_4
REMARK    4  A    between atoms: C_4  and  C_5
REMARK    5  A    between atoms: C_5  and  C_6
REMARK    6  A    between atoms: C_6  and  C_7
REMARK    7  A    between atoms: C_7  and  C_8
REMARK    8  A    between atoms: C_8  and  C_9
REMARK    9  A    between atoms: C_9  and  C_10
REMARK   10  A    between atoms: C_10  and  C_11
REMARK   11  A    between atoms: C_11  and  C_12
REMARK   12  A    between atoms: C_18  and  N_19
REMARK                            x       y       z     vdW  Elec       q    Type
REMARK                         _______ _______ _______ _____ _____    ______ ____
ROOT
ATOM      1  C   UNL     1       3.233   3.122 -23.951  0.00  0.00    +0.047 A 
ATOM      2  C   UNL     1       3.464   4.289 -23.423  0.00  0.00    +0.159 A 
ATOM      3  O   UNL     1       4.638   4.561 -22.937  0.00  0.00    -0.451 OA
ATOM      4  C   UNL     1       4.867   5.728 -22.410  0.00  0.00    +0.152 A 
ATOM      5  C   UNL     1       6.043   6.001 -21.923  0.00  0.00    +0.055 A 
ATOM      6  C   UNL     1       6.272   7.167 -21.396  0.00  0.00    +0.088 A 
ATOM      7  C   UNL     1       5.327   8.060 -21.354  0.00  0.00    +0.275 A 
ATOM      8  C   UNL     1       4.153   7.785 -21.840  0.00  0.00    +0.113 A 
ATOM      9  C   UNL     1       3.924   6.620 -22.368  0.00  0.00    +0.089 A 
ATOM     10  N   UNL     1       2.750   6.346 -22.854  0.00  0.00    -0.349 N 
ATOM     11  H   UNL     1       2.035   7.022 -22.822  0.00  0.00    +0.166 HD
ATOM     12  C   UNL     1       2.519   5.181 -23.381  0.00  0.00    +0.087 A 
ATOM     13  C   UNL     1       1.346   4.909 -23.867  0.00  0.00    +0.084 A 
ATOM     14  C   UNL     1       1.113   3.743 -24.395  0.00  0.00    +0.228 A 
ATOM     15  O   UNL     1      -0.060   3.471 -24.881  0.00  0.00    -0.284 OA
ATOM     16  C   UNL     1       2.058   2.851 -24.437  0.00  0.00    +0.232 A 
ATOM     17  O   UNL     1       1.827   1.685 -24.965  0.00  0.00    -0.283 OA
ENDROOT
BRANCH   7  18
ATOM     18  N   UNL     1       5.557   9.225 -20.827  0.00  0.00    +0.080 N 
ATOM     19  O   UNL     1       6.779   9.644 -20.684  0.00  0.00    -0.576 OA
ATOM     20  O   UNL     1       4.565   9.971 -20.442  0.00  0.00    +0.041 OA
ENDBRANCH   7  18
BRANCH   1  21
ATOM     21  C   UNL     1       4.177   2.231 -23.992  0.00  0.00    +0.043 C 
BRANCH  21  22
ATOM     22  C   UNL     1       4.525   1.599 -22.910  0.00  0.00    +0.005 C 
BRANCH  22  23
ATOM     23  C   UNL     1       3.670   0.835 -22.298  0.00  0.00    +0.000 C 
BRANCH  23  24
ATOM     24  C   UNL     1       3.420   1.020 -21.036  0.00  0.00    +0.000 C 
BRANCH  24  25
ATOM     25  C   UNL     1       2.252   1.449 -20.660  0.00  0.00    +0.000 C 
BRANCH  25  26
ATOM     26  C   UNL     1       1.237   1.363 -21.468  0.00  0.00    +0.000 C 
BRANCH  26  27
ATOM     27  C   UNL     1       0.040   1.641 -21.042  0.00  0.00    -0.000 C 
BRANCH  27  28
ATOM     28  C   UNL     1      -0.924   1.833 -21.891  0.00  0.00    -0.000 C 
BRANCH  28  29
ATOM     29  C   UNL     1      -1.695   2.873 -21.775  0.00  0.00    -0.000 C 
BRANCH  29  31
ATOM     30  C   UNL     1      -3.112   3.789 -20.284  0.00  0.00    +0.004 C 
ATOM     31  C   UNL     1      -2.779   2.801 -21.062  0.00  0.00    -0.003 C 
ENDBRANCH  29  31
ENDBRANCH  28  29
ENDBRANCH  27  28
ENDBRANCH  26  27
ENDBRANCH  25  26
ENDBRANCH  24  25
ENDBRANCH  23  24
ENDBRANCH  22  23
ENDBRANCH  21  22
ENDBRANCH   1  21
TORSDOF 11
ENDMDL
MODEL 6
REMARK VINA RESULT:    -7.672      2.537      4.813
REMARK INTER + INTRA:         -14.243
REMARK INTER:                 -12.820
REMARK INTRA:                  -1.423
REMARK UNBOUND:                -1.637
REMARK  Name = CCCCCCCCCCCc1c2oc3ccc([N+](=O)[O-])cc3[nH]c-2cc(=O)c1=O              ZINC000100392915
REMARK  12 active torsions:
REMARK  status: ('A' for Active; 'I' for Inactive)
REMARK    1  A    between atoms: C_1  and  C_2
REMARK    2  A    between atoms: C_2  and  C_3
REMARK    3  A    between atoms: C_3  and  C_4
REMARK    4  A    between atoms: C_4  and  C_5
REMARK    5  A    between atoms: C_5  and  C_6
REMARK    6  A    between atoms: C_6  and  C_7
REMARK    7  A    between atoms: C_7  and  C_8
REMARK    8  A    between atoms: C_8  and  C_9
REMARK    9  A    between atoms: C_9  and  C_10
REMARK   10  A    between atoms: C_10  and  C_11
REMARK   11  A    between atoms: C_11  and  C_12
REMARK   12  A    between atoms: C_18  and  N_19
REMARK                            x       y       z     vdW  Elec       q    Type
REMARK                         _______ _______ _______ _____ _____    ______ ____
ROOT
ATOM      1  C   UNL     1       2.109   2.277 -22.654  0.00  0.00    +0.047 A 
ATOM      2  C   UNL     1       0.842   2.439 -22.909  0.00  0.00    +0.159 A 
ATOM      3  O   UNL     1       0.467   2.908 -24.061  0.00  0.00    -0.451 OA
ATOM      4  C   UNL     1      -0.799   3.070 -24.313  0.00  0.00    +0.152 A 
ATOM      5  C   UNL     1      -1.177   3.540 -25.467  0.00  0.00    +0.055 A 
ATOM      6  C   UNL     1      -2.442   3.701 -25.719  0.00  0.00    +0.088 A 
ATOM      7  C   UNL     1      -3.330   3.394 -24.820  0.00  0.00    +0.275 A 
ATOM      8  C   UNL     1      -2.951   2.925 -23.668  0.00  0.00    +0.113 A 
ATOM      9  C   UNL     1      -1.687   2.763 -23.415  0.00  0.00    +0.089 A 
ATOM     10  N   UNL     1      -1.309   2.294 -22.264  0.00  0.00    -0.349 N 
ATOM     11  H   UNL     1      -1.982   2.061 -21.583  0.00  0.00    +0.166 HD
ATOM     12  C   UNL     1      -0.045   2.132 -22.010  0.00  0.00    +0.087 A 
ATOM     13  C   UNL     1       0.331   1.663 -20.859  0.00  0.00    +0.084 A 
ATOM     14  C   UNL     1       1.596   1.500 -20.603  0.00  0.00    +0.228 A 
ATOM     15  O   UNL     1       1.972   1.031 -19.451  0.00  0.00    -0.284 OA
ATOM     16  C   UNL     1       2.484   1.808 -21.502  0.00  0.00    +0.232 A 
ATOM     17  O   UNL     1       3.749   1.645 -21.247  0.00  0.00    -0.283 OA
ENDROOT
BRANCH   7  18
ATOM     18  N   UNL     1      -4.594   3.556 -25.073  0.00  0.00    +0.080 N 
ATOM     19  O   UNL     1      -5.140   2.937 -26.077  0.00  0.00    -0.576 OA
ATOM     20  O   UNL     1      -5.312   4.337 -24.322  0.00  0.00    +0.041 OA
ENDBRANCH   7  18
BRANCH   1  21
ATOM     21  C   UNL     1       2.995   2.584 -23.553  0.00  0.00    +0.043 C 
BRANCH  21  22
ATOM     22  C   UNL     1       3.419   3.809 -23.658  0.00  0.00    +0.005 C 
BRANCH  22  23
ATOM     23  C   UNL     1       4.610   4.124 -23.243  0.00  0.00    +0.000 C 
BRANCH  23  24
ATOM     24  C   UNL     1       5.636   3.413 -23.607  0.00  0.00    +0.000 C 
BRANCH  24  25
ATOM     25  C   UNL     1       6.597   3.178 -22.764  0.00  0.00    +0.000 C 
BRANCH  25  26
ATOM     26  C   UNL     1       6.548   3.679 -21.566  0.00  0.00    +0.000 C 
BRANCH  26  27
ATOM     27  C   UNL     1       7.454   4.529 -21.179  0.00  0.00    -0.000 C 
BRANCH  27  28
ATOM     28  C   UNL     1       7.100   5.699 -20.737  0.00  0.00    -0.000 C 
BRANCH  28  29
ATOM     29  C   UNL     1       6.875   6.668 -21.574  0.00  0.00    -0.000 C 
BRANCH  29  31
ATOM     30  C   UNL     1       5.456   8.223 -20.775  0.00  0.00    +0.004 C 
ATOM     31  C   UNL     1       5.713   7.249 -21.597  0.00  0.00    -0.003 C 
ENDBRANCH  29  31
ENDBRANCH  28  29
ENDBRANCH  27  28
ENDBRANCH  26  27
ENDBRANCH  25  26
ENDBRANCH  24  25
ENDBRANCH  23  24
ENDBRANCH  22  23
ENDBRANCH  21  22
ENDBRANCH   1  21
TORSDOF 11
ENDMDL
MODEL 7
REMARK VINA RESULT:    -7.558      2.954      5.392
REMARK INTER + INTRA:         -14.055
REMARK INTER:                 -12.447
REMARK INTRA:                  -1.608
REMARK UNBOUND:                -1.637
REMARK  Name = CCCCCCCCCCCc1c2oc3ccc([N+](=O)[O-])cc3[nH]c-2cc(=O)c1=O              ZINC000100392915
REMARK  12 active torsions:
REMARK  status: ('A' for Active; 'I' for Inactive)
REMARK    1  A    between atoms: C_1  and  C_2
REMARK    2  A    between atoms: C_2  and  C_3
REMARK    3  A    between atoms: C_3  and  C_4
REMARK    4  A    between atoms: C_4  and  C_5
REMARK    5  A    between atoms: C_5  and  C_6
REMARK    6  A    between atoms: C_6  and  C_7
REMARK    7  A    between atoms: C_7  and  C_8
REMARK    8  A    between atoms: C_8  and  C_9
REMARK    9  A    between atoms: C_9  and  C_10
REMARK   10  A    between atoms: C_10  and  C_11
REMARK   11  A    between atoms: C_11  and  C_12
REMARK   12  A    between atoms: C_18  and  N_19
REMARK                            x       y       z     vdW  Elec       q    Type
REMARK                         _______ _______ _______ _____ _____    ______ ____
ROOT
ATOM      1  C   UNL     1       3.668   2.385 -22.609  0.00  0.00    +0.047 A 
ATOM      2  C   UNL     1       2.384   2.347 -22.401  0.00  0.00    +0.159 A 
ATOM      3  O   UNL     1       1.596   3.142 -23.061  0.00  0.00    -0.451 OA
ATOM      4  C   UNL     1       0.312   3.102 -22.852  0.00  0.00    +0.152 A 
ATOM      5  C   UNL     1      -0.478   3.898 -23.512  0.00  0.00    +0.055 A 
ATOM      6  C   UNL     1      -1.761   3.859 -23.303  0.00  0.00    +0.088 A 
ATOM      7  C   UNL     1      -2.254   3.025 -22.436  0.00  0.00    +0.275 A 
ATOM      8  C   UNL     1      -1.463   2.231 -21.777  0.00  0.00    +0.113 A 
ATOM      9  C   UNL     1      -0.182   2.270 -21.985  0.00  0.00    +0.089 A 
ATOM     10  N   UNL     1       0.608   1.475 -21.326  0.00  0.00    -0.349 N 
ATOM     11  H   UNL     1       0.235   0.844 -20.669  0.00  0.00    +0.166 HD
ATOM     12  C   UNL     1       1.891   1.514 -21.534  0.00  0.00    +0.087 A 
ATOM     13  C   UNL     1       2.679   0.719 -20.874  0.00  0.00    +0.084 A 
ATOM     14  C   UNL     1       3.963   0.756 -21.081  0.00  0.00    +0.228 A 
ATOM     15  O   UNL     1       4.751  -0.039 -20.421  0.00  0.00    -0.284 OA
ATOM     16  C   UNL     1       4.456   1.590 -21.948  0.00  0.00    +0.232 A 
ATOM     17  O   UNL     1       5.740   1.627 -22.155  0.00  0.00    -0.283 OA
ENDROOT
BRANCH   7  18
ATOM     18  N   UNL     1      -3.536   2.986 -22.228  0.00  0.00    +0.080 N 
ATOM     19  O   UNL     1      -3.998   2.549 -21.095  0.00  0.00    -0.576 OA
ATOM     20  O   UNL     1      -4.357   3.386 -23.153  0.00  0.00    +0.041 OA
ENDBRANCH   7  18
BRANCH   1  21
ATOM     21  C   UNL     1       4.160   3.218 -23.476  0.00  0.00    +0.043 C 
BRANCH  21  22
ATOM     22  C   UNL     1       4.173   4.493 -23.220  0.00  0.00    +0.005 C 
BRANCH  22  23
ATOM     23  C   UNL     1       5.269   5.067 -22.821  0.00  0.00    +0.000 C 
BRANCH  23  24
ATOM     24  C   UNL     1       6.417   4.675 -23.290  0.00  0.00    +0.000 C 
BRANCH  24  25
ATOM     25  C   UNL     1       7.448   4.596 -22.502  0.00  0.00    +0.000 C 
BRANCH  25  26
ATOM     26  C   UNL     1       7.279   4.473 -21.219  0.00  0.00    +0.000 C 
BRANCH  26  27
ATOM     27  C   UNL     1       7.885   5.284 -20.402  0.00  0.00    -0.000 C 
BRANCH  27  28
ATOM     28  C   UNL     1       7.223   6.242 -19.826  0.00  0.00    -0.000 C 
BRANCH  28  29
ATOM     29  C   UNL     1       7.383   7.470 -20.220  0.00  0.00    -0.000 C 
BRANCH  29  31
ATOM     30  C   UNL     1       5.242   8.064 -20.585  0.00  0.00    +0.004 C 
ATOM     31  C   UNL     1       6.484   8.035 -20.969  0.00  0.00    -0.003 C 
ENDBRANCH  29  31
ENDBRANCH  28  29
ENDBRANCH  27  28
ENDBRANCH  26  27
ENDBRANCH  25  26
ENDBRANCH  24  25
ENDBRANCH  23  24
ENDBRANCH  22  23
ENDBRANCH  21  22
ENDBRANCH   1  21
TORSDOF 11
ENDMDL
MODEL 8
REMARK VINA RESULT:    -7.311      2.834      6.432
REMARK INTER + INTRA:         -13.650
REMARK INTER:                 -12.747
REMARK INTRA:                  -0.903
REMARK UNBOUND:                -1.637
REMARK  Name = CCCCCCCCCCCc1c2oc3ccc([N+](=O)[O-])cc3[nH]c-2cc(=O)c1=O              ZINC000100392915
REMARK  12 active torsions:
REMARK  status: ('A' for Active; 'I' for Inactive)
REMARK    1  A    between atoms: C_1  and  C_2
REMARK    2  A    between atoms: C_2  and  C_3
REMARK    3  A    between atoms: C_3  and  C_4
REMARK    4  A    between atoms: C_4  and  C_5
REMARK    5  A    between atoms: C_5  and  C_6
REMARK    6  A    between atoms: C_6  and  C_7
REMARK    7  A    between atoms: C_7  and  C_8
REMARK    8  A    between atoms: C_8  and  C_9
REMARK    9  A    between atoms: C_9  and  C_10
REMARK   10  A    between atoms: C_10  and  C_11
REMARK   11  A    between atoms: C_11  and  C_12
REMARK   12  A    between atoms: C_18  and  N_19
REMARK                            x       y       z     vdW  Elec       q    Type
REMARK                         _______ _______ _______ _____ _____    ______ ____
ROOT
ATOM      1  C   UNL     1       2.923   2.814 -24.010  0.00  0.00    +0.047 A 
ATOM      2  C   UNL     1       3.777   3.654 -23.500  0.00  0.00    +0.159 A 
ATOM      3  O   UNL     1       4.977   3.256 -23.198  0.00  0.00    -0.451 OA
ATOM      4  C   UNL     1       5.829   4.097 -22.689  0.00  0.00    +0.152 A 
ATOM      5  C   UNL     1       7.031   3.700 -22.386  0.00  0.00    +0.055 A 
ATOM      6  C   UNL     1       7.883   4.540 -21.877  0.00  0.00    +0.088 A 
ATOM      7  C   UNL     1       7.535   5.775 -21.670  0.00  0.00    +0.275 A 
ATOM      8  C   UNL     1       6.334   6.170 -21.973  0.00  0.00    +0.113 A 
ATOM      9  C   UNL     1       5.483   5.332 -22.482  0.00  0.00    +0.089 A 
ATOM     10  N   UNL     1       4.282   5.727 -22.784  0.00  0.00    -0.349 N 
ATOM     11  H   UNL     1       4.019   6.663 -22.628  0.00  0.00    +0.166 HD
ATOM     12  C   UNL     1       3.429   4.889 -23.294  0.00  0.00    +0.087 A 
ATOM     13  C   UNL     1       2.230   5.286 -23.595  0.00  0.00    +0.084 A 
ATOM     14  C   UNL     1       1.375   4.448 -24.105  0.00  0.00    +0.228 A 
ATOM     15  O   UNL     1       0.176   4.845 -24.407  0.00  0.00    -0.284 OA
ATOM     16  C   UNL     1       1.724   3.212 -24.311  0.00  0.00    +0.232 A 
ATOM     17  O   UNL     1       0.869   2.374 -24.821  0.00  0.00    -0.283 OA
ENDROOT
BRANCH   7  18
ATOM     18  N   UNL     1       8.387   6.614 -21.161  0.00  0.00    +0.080 N 
ATOM     19  O   UNL     1       8.784   7.639 -21.855  0.00  0.00    -0.576 OA
ATOM     20  O   UNL     1       8.842   6.429 -19.958  0.00  0.00    +0.041 OA
ENDBRANCH   7  18
BRANCH   1  21
ATOM     21  C   UNL     1       3.272   1.580 -24.216  0.00  0.00    +0.043 C 
BRANCH  21  22
ATOM     22  C   UNL     1       3.417   0.767 -23.211  0.00  0.00    +0.005 C 
BRANCH  22  23
ATOM     23  C   UNL     1       2.417   0.531 -22.414  0.00  0.00    +0.000 C 
BRANCH  23  24
ATOM     24  C   UNL     1       2.259   1.246 -21.340  0.00  0.00    +0.000 C 
BRANCH  24  25
ATOM     25  C   UNL     1       1.063   1.563 -20.941  0.00  0.00    +0.000 C 
BRANCH  25  26
ATOM     26  C   UNL     1       0.038   1.325 -21.704  0.00  0.00    +0.000 C 
BRANCH  26  27
ATOM     27  C   UNL     1      -0.873   2.237 -21.873  0.00  0.00    -0.000 C 
BRANCH  27  28
ATOM     28  C   UNL     1      -1.859   2.336 -21.031  0.00  0.00    -0.000 C 
BRANCH  28  29
ATOM     29  C   UNL     1      -2.837   3.157 -21.270  0.00  0.00    -0.000 C 
BRANCH  29  31
ATOM     30  C   UNL     1      -4.954   3.402 -21.999  0.00  0.00    +0.004 C 
ATOM     31  C   UNL     1      -4.053   2.707 -21.369  0.00  0.00    -0.003 C 
ENDBRANCH  29  31
ENDBRANCH  28  29
ENDBRANCH  27  28
ENDBRANCH  26  27
ENDBRANCH  25  26
ENDBRANCH  24  25
ENDBRANCH  23  24
ENDBRANCH  22  23
ENDBRANCH  21  22
ENDBRANCH   1  21
TORSDOF 11
ENDMDL
MODEL 9
REMARK VINA RESULT:    -7.085      3.612      6.797
REMARK INTER + INTRA:         -13.278
REMARK INTER:                 -11.641
REMARK INTRA:                  -1.637
REMARK UNBOUND:                -1.637
REMARK  Name = CCCCCCCCCCCc1c2oc3ccc([N+](=O)[O-])cc3[nH]c-2cc(=O)c1=O              ZINC000100392915
REMARK  12 active torsions:
REMARK  status: ('A' for Active; 'I' for Inactive)
REMARK    1  A    between atoms: C_1  and  C_2
REMARK    2  A    between atoms: C_2  and  C_3
REMARK    3  A    between atoms: C_3  and  C_4
REMARK    4  A    between atoms: C_4  and  C_5
REMARK    5  A    between atoms: C_5  and  C_6
REMARK    6  A    between atoms: C_6  and  C_7
REMARK    7  A    between atoms: C_7  and  C_8
REMARK    8  A    between atoms: C_8  and  C_9
REMARK    9  A    between atoms: C_9  and  C_10
REMARK   10  A    between atoms: C_10  and  C_11
REMARK   11  A    between atoms: C_11  and  C_12
REMARK   12  A    between atoms: C_18  and  N_19
REMARK                            x       y       z     vdW  Elec       q    Type
REMARK                         _______ _______ _______ _____ _____    ______ ____
ROOT
ATOM      1  C   UNL     1       3.500   3.318 -22.934  0.00  0.00    +0.047 A 
ATOM      2  C   UNL     1       4.272   4.294 -22.549  0.00  0.00    +0.159 A 
ATOM      3  O   UNL     1       3.823   5.514 -22.546  0.00  0.00    -0.451 OA
ATOM      4  C   UNL     1       4.596   6.487 -22.162  0.00  0.00    +0.152 A 
ATOM      5  C   UNL     1       4.148   7.709 -22.158  0.00  0.00    +0.055 A 
ATOM      6  C   UNL     1       4.920   8.682 -21.774  0.00  0.00    +0.088 A 
ATOM      7  C   UNL     1       6.139   8.436 -21.394  0.00  0.00    +0.275 A 
ATOM      8  C   UNL     1       6.585   7.214 -21.399  0.00  0.00    +0.113 A 
ATOM      9  C   UNL     1       5.814   6.242 -21.782  0.00  0.00    +0.089 A 
ATOM     10  N   UNL     1       6.261   5.021 -21.786  0.00  0.00    -0.349 N 
ATOM     11  H   UNL     1       7.184   4.834 -21.498  0.00  0.00    +0.166 HD
ATOM     12  C   UNL     1       5.490   4.047 -22.170  0.00  0.00    +0.087 A 
ATOM     13  C   UNL     1       5.938   2.828 -22.173  0.00  0.00    +0.084 A 
ATOM     14  C   UNL     1       5.168   1.852 -22.557  0.00  0.00    +0.228 A 
ATOM     15  O   UNL     1       5.616   0.632 -22.560  0.00  0.00    -0.284 OA
ATOM     16  C   UNL     1       3.949   2.099 -22.937  0.00  0.00    +0.232 A 
ATOM     17  O   UNL     1       3.179   1.124 -23.320  0.00  0.00    -0.283 OA
ENDROOT
BRANCH   7  18
ATOM     18  N   UNL     1       6.909   9.408 -21.011  0.00  0.00    +0.080 N 
ATOM     19  O   UNL     1       6.462  10.629 -21.005  0.00  0.00    -0.576 OA
ATOM     20  O   UNL     1       8.128   9.162 -20.633  0.00  0.00    +0.041 OA
ENDBRANCH   7  18
BRANCH   1  21
ATOM     21  C   UNL     1       2.283   3.566 -23.313  0.00  0.00    +0.043 C 
BRANCH  21  22
ATOM     22  C   UNL     1       2.039   3.898 -24.547  0.00  0.00    +0.005 C 
BRANCH  22  23
ATOM     23  C   UNL     1       0.844   4.268 -24.899  0.00  0.00    +0.000 C 
BRANCH  23  24
ATOM     24  C   UNL     1      -0.072   3.375 -25.131  0.00  0.00    +0.000 C 
BRANCH  24  25
ATOM     25  C   UNL     1      -1.326   3.719 -25.155  0.00  0.00    +0.000 C 
BRANCH  25  26
ATOM     26  C   UNL     1      -1.888   4.198 -24.085  0.00  0.00    +0.000 C 
BRANCH  26  27
ATOM     27  C   UNL     1      -2.978   3.657 -23.626  0.00  0.00    -0.000 C 
BRANCH  27  28
ATOM     28  C   UNL     1      -3.032   3.252 -22.392  0.00  0.00    -0.000 C 
BRANCH  28  29
ATOM     29  C   UNL     1      -1.937   3.106 -21.707  0.00  0.00    -0.000 C 
BRANCH  29  31
ATOM     30  C   UNL     1      -0.302   1.559 -21.800  0.00  0.00    +0.004 C 
ATOM     31  C   UNL     1      -1.498   1.914 -21.432  0.00  0.00    -0.003 C 
ENDBRANCH  29  31
ENDBRANCH  28  29
ENDBRANCH  27  28
ENDBRANCH  26  27
ENDBRANCH  25  26
ENDBRANCH  24  25
ENDBRANCH  23  24
ENDBRANCH  22  23
ENDBRANCH  21  22
ENDBRANCH   1  21
TORSDOF 11
ENDMDL
