MODEL 1
REMARK VINA RESULT:    -9.594      0.000      0.000
REMARK INTER + INTRA:         -12.180
REMARK INTER:                 -11.432
REMARK INTRA:                  -0.748
REMARK UNBOUND:                 0.218
REMARK  Name = ZINC000000896218
REMARK  8 active torsions:
REMARK  status: ('A' for Active; 'I' for Inactive)
REMARK    1  A    between atoms: C_1  and  O_2
REMARK    2  A    between atoms: O_2  and  C_3
REMARK    3  A    between atoms: C_6  and  C_7
REMARK    4  A    between atoms: C_7  and  C_8
REMARK    5  A    between atoms: C_14  and  O_15
REMARK    6  A    between atoms: O_15  and  C_16
REMARK    7  A    between atoms: C_17  and  O_18
REMARK    8  A    between atoms: C_22  and  O_23
REMARK                            x       y       z     vdW  Elec       q    Type
REMARK                         _______ _______ _______ _____ _____    ______ ____
ROOT
ATOM      1  C   UNL     1       0.907   3.667 -24.152  0.00  0.00    +0.098 C 
ATOM      2  N   UNL     1       0.971   4.963 -24.063  0.00  0.00    +0.233 N 
ATOM      3  H   UNL     1       1.090   5.259 -25.032  0.00  0.00    +0.202 HD
ATOM      4  H   UNL     1       0.125   5.267 -23.580  0.00  0.00    +0.202 HD
ATOM      5  C   UNL     1       1.973   5.525 -23.454  0.00  0.00    +0.134 C 
ATOM      6  C   UNL     1       2.911   4.790 -22.934  0.00  0.00    +0.086 C 
ATOM      7  C   UNL     1       2.848   3.495 -23.023  0.00  0.00    -0.030 A 
ATOM      8  C   UNL     1       3.786   2.761 -22.503  0.00  0.00    +0.053 A 
ATOM      9  C   UNL     1       3.723   1.465 -22.592  0.00  0.00    +0.162 A 
ATOM     10  C   UNL     1       2.720   0.905 -23.201  0.00  0.00    +0.159 A 
ATOM     11  C   UNL     1       1.782   1.638 -23.721  0.00  0.00    +0.058 A 
ATOM     12  C   UNL     1       1.846   2.934 -23.632  0.00  0.00    +0.007 A 
ENDROOT
BRANCH  10  13
ATOM     13  O   UNL     1       2.657  -0.391 -23.290  0.00  0.00    -0.503 OA
ATOM     14  H   UNL     1       2.200  -0.884 -22.637  0.00  0.00    +0.292 HD
ENDBRANCH  10  13
BRANCH   9  15
ATOM     15  O   UNL     1       4.661   0.732 -22.072  0.00  0.00    -0.491 OA
ATOM     16  C   UNL     1       4.770   0.635 -20.780  0.00  0.00    +0.277 C 
ENDBRANCH   9  15
BRANCH   1  17
ATOM     17  C   UNL     1      -0.095   3.107 -24.761  0.00  0.00    +0.094 C 
BRANCH  17  21
ATOM     18  C   UNL     1      -3.732   3.693 -23.483  0.00  0.00    +0.161 A 
ATOM     19  C   UNL     1      -2.942   2.879 -22.847  0.00  0.00    +0.049 A 
ATOM     20  C   UNL     1      -1.730   2.683 -23.273  0.00  0.00    +0.007 A 
ATOM     21  C   UNL     1      -1.307   3.302 -24.335  0.00  0.00    -0.038 A 
ATOM     22  C   UNL     1      -2.096   4.116 -24.971  0.00  0.00    +0.053 A 
ATOM     23  C   UNL     1      -3.308   4.312 -24.545  0.00  0.00    +0.159 A 
BRANCH  18  25
ATOM     24  C   UNL     1      -5.403   3.199 -22.055  0.00  0.00    +0.277 C 
ATOM     25  O   UNL     1      -4.945   3.889 -23.057  0.00  0.00    -0.491 OA
ENDBRANCH  18  25
BRANCH  23  26
ATOM     26  O   UNL     1      -4.098   5.126 -25.181  0.00  0.00    -0.503 OA
ATOM     27  H   UNL     1      -4.896   5.412 -24.782  0.00  0.00    +0.292 HD
ENDBRANCH  23  26
ENDBRANCH  17  21
ENDBRANCH   1  17
TORSDOF 6
ENDMDL
MODEL 2
REMARK VINA RESULT:    -9.547      2.314      6.951
REMARK INTER + INTRA:         -12.119
REMARK INTER:                 -11.474
REMARK INTRA:                  -0.645
REMARK UNBOUND:                 0.218
REMARK  Name = ZINC000000896218
REMARK  8 active torsions:
REMARK  status: ('A' for Active; 'I' for Inactive)
REMARK    1  A    between atoms: C_1  and  O_2
REMARK    2  A    between atoms: O_2  and  C_3
REMARK    3  A    between atoms: C_6  and  C_7
REMARK    4  A    between atoms: C_7  and  C_8
REMARK    5  A    between atoms: C_14  and  O_15
REMARK    6  A    between atoms: O_15  and  C_16
REMARK    7  A    between atoms: C_17  and  O_18
REMARK    8  A    between atoms: C_22  and  O_23
REMARK                            x       y       z     vdW  Elec       q    Type
REMARK                         _______ _______ _______ _____ _____    ______ ____
ROOT
ATOM      1  C   UNL     1       0.262   2.873 -23.153  0.00  0.00    +0.098 C 
ATOM      2  N   UNL     1       0.785   2.073 -22.270  0.00  0.00    +0.233 N 
ATOM      3  H   UNL     1       1.140   1.301 -22.835  0.00  0.00    +0.202 HD
ATOM      4  H   UNL     1       1.466   2.621 -21.743  0.00  0.00    +0.202 HD
ATOM      5  C   UNL     1       0.025   1.480 -21.398  0.00  0.00    +0.134 C 
ATOM      6  C   UNL     1      -1.259   1.687 -21.409  0.00  0.00    +0.086 C 
ATOM      7  C   UNL     1      -1.781   2.487 -22.291  0.00  0.00    -0.030 A 
ATOM      8  C   UNL     1      -3.065   2.693 -22.301  0.00  0.00    +0.053 A 
ATOM      9  C   UNL     1      -3.588   3.493 -23.184  0.00  0.00    +0.162 A 
ATOM     10  C   UNL     1      -2.826   4.085 -24.055  0.00  0.00    +0.159 A 
ATOM     11  C   UNL     1      -1.543   3.878 -24.045  0.00  0.00    +0.058 A 
ATOM     12  C   UNL     1      -1.021   3.079 -23.163  0.00  0.00    +0.007 A 
ENDROOT
BRANCH  10  13
ATOM     13  O   UNL     1      -3.349   4.885 -24.938  0.00  0.00    -0.503 OA
ATOM     14  H   UNL     1      -4.279   4.997 -24.976  0.00  0.00    +0.292 HD
ENDBRANCH  10  13
BRANCH   9  15
ATOM     15  O   UNL     1      -4.871   3.699 -23.194  0.00  0.00    -0.491 OA
ATOM     16  C   UNL     1      -5.600   3.311 -22.190  0.00  0.00    +0.277 C 
ENDBRANCH   9  15
BRANCH   1  17
ATOM     17  C   UNL     1       1.024   3.465 -24.024  0.00  0.00    +0.094 C 
BRANCH  17  21
ATOM     18  C   UNL     1       4.420   5.024 -22.909  0.00  0.00    +0.161 A 
ATOM     19  C   UNL     1       4.383   3.810 -23.373  0.00  0.00    +0.049 A 
ATOM     20  C   UNL     1       3.251   3.291 -23.745  0.00  0.00    +0.007 A 
ATOM     21  C   UNL     1       2.156   3.985 -23.652  0.00  0.00    -0.038 A 
ATOM     22  C   UNL     1       2.192   5.198 -23.188  0.00  0.00    +0.053 A 
ATOM     23  C   UNL     1       3.324   5.718 -22.817  0.00  0.00    +0.159 A 
BRANCH  18  25
ATOM     24  C   UNL     1       6.666   5.117 -23.053  0.00  0.00    +0.277 C 
ATOM     25  O   UNL     1       5.552   5.545 -22.537  0.00  0.00    -0.491 OA
ENDBRANCH  18  25
BRANCH  23  26
ATOM     26  O   UNL     1       3.361   6.932 -22.353  0.00  0.00    -0.503 OA
ATOM     27  H   UNL     1       3.216   7.089 -21.440  0.00  0.00    +0.292 HD
ENDBRANCH  23  26
ENDBRANCH  17  21
ENDBRANCH   1  17
TORSDOF 6
ENDMDL
MODEL 3
REMARK VINA RESULT:    -9.486      1.521      6.887
REMARK INTER + INTRA:         -12.041
REMARK INTER:                 -11.365
REMARK INTRA:                  -0.675
REMARK UNBOUND:                 0.218
REMARK  Name = ZINC000000896218
REMARK  8 active torsions:
REMARK  status: ('A' for Active; 'I' for Inactive)
REMARK    1  A    between atoms: C_1  and  O_2
REMARK    2  A    between atoms: O_2  and  C_3
REMARK    3  A    between atoms: C_6  and  C_7
REMARK    4  A    between atoms: C_7  and  C_8
REMARK    5  A    between atoms: C_14  and  O_15
REMARK    6  A    between atoms: O_15  and  C_16
REMARK    7  A    between atoms: C_17  and  O_18
REMARK    8  A    between atoms: C_22  and  O_23
REMARK                            x       y       z     vdW  Elec       q    Type
REMARK                         _______ _______ _______ _____ _____    ______ ____
ROOT
ATOM      1  C   UNL     1      -0.839   4.024 -23.828  0.00  0.00    +0.098 C 
ATOM      2  N   UNL     1      -0.786   3.826 -25.112  0.00  0.00    +0.233 N 
ATOM      3  H   UNL     1      -0.573   4.752 -25.484  0.00  0.00    +0.202 HD
ATOM      4  H   UNL     1      -0.098   3.088 -25.268  0.00  0.00    +0.202 HD
ATOM      5  C   UNL     1      -1.858   3.482 -25.761  0.00  0.00    +0.134 C 
ATOM      6  C   UNL     1      -2.984   3.337 -25.127  0.00  0.00    +0.086 C 
ATOM      7  C   UNL     1      -3.037   3.536 -23.843  0.00  0.00    -0.030 A 
ATOM      8  C   UNL     1      -4.162   3.391 -23.209  0.00  0.00    +0.053 A 
ATOM      9  C   UNL     1      -4.215   3.589 -21.925  0.00  0.00    +0.162 A 
ATOM     10  C   UNL     1      -3.142   3.933 -21.276  0.00  0.00    +0.159 A 
ATOM     11  C   UNL     1      -2.017   4.078 -21.910  0.00  0.00    +0.058 A 
ATOM     12  C   UNL     1      -1.964   3.879 -23.194  0.00  0.00    +0.007 A 
ENDROOT
BRANCH  10  13
ATOM     13  O   UNL     1      -3.195   4.132 -19.992  0.00  0.00    -0.503 OA
ATOM     14  H   UNL     1      -2.506   3.818 -19.440  0.00  0.00    +0.292 HD
ENDBRANCH  10  13
BRANCH   9  15
ATOM     15  O   UNL     1      -5.340   3.444 -21.291  0.00  0.00    -0.491 OA
ATOM     16  C   UNL     1      -6.278   2.697 -21.793  0.00  0.00    +0.277 C 
ENDBRANCH   9  15
BRANCH   1  17
ATOM     17  C   UNL     1       0.234   4.368 -23.179  0.00  0.00    +0.094 C 
BRANCH  17  21
ATOM     18  C   UNL     1       3.320   1.985 -23.108  0.00  0.00    +0.161 A 
ATOM     19  C   UNL     1       3.477   3.245 -23.389  0.00  0.00    +0.049 A 
ATOM     20  C   UNL     1       2.449   4.039 -23.413  0.00  0.00    +0.007 A 
ATOM     21  C   UNL     1       1.263   3.574 -23.155  0.00  0.00    -0.038 A 
ATOM     22  C   UNL     1       1.105   2.314 -22.874  0.00  0.00    +0.053 A 
ATOM     23  C   UNL     1       2.133   1.520 -22.850  0.00  0.00    +0.159 A 
BRANCH  18  25
ATOM     24  C   UNL     1       5.219   1.280 -22.122  0.00  0.00    +0.277 C 
ATOM     25  O   UNL     1       4.349   1.190 -23.084  0.00  0.00    -0.491 OA
ENDBRANCH  18  25
BRANCH  23  26
ATOM     26  O   UNL     1       1.975   0.261 -22.569  0.00  0.00    -0.503 OA
ATOM     27  H   UNL     1       2.028  -0.382 -23.250  0.00  0.00    +0.292 HD
ENDBRANCH  23  26
ENDBRANCH  17  21
ENDBRANCH   1  17
TORSDOF 6
ENDMDL
MODEL 4
REMARK VINA RESULT:    -9.429      2.191      6.815
REMARK INTER + INTRA:         -11.967
REMARK INTER:                 -11.509
REMARK INTRA:                  -0.458
REMARK UNBOUND:                 0.218
REMARK  Name = ZINC000000896218
REMARK  8 active torsions:
REMARK  status: ('A' for Active; 'I' for Inactive)
REMARK    1  A    between atoms: C_1  and  O_2
REMARK    2  A    between atoms: O_2  and  C_3
REMARK    3  A    between atoms: C_6  and  C_7
REMARK    4  A    between atoms: C_7  and  C_8
REMARK    5  A    between atoms: C_14  and  O_15
REMARK    6  A    between atoms: O_15  and  C_16
REMARK    7  A    between atoms: C_17  and  O_18
REMARK    8  A    between atoms: C_22  and  O_23
REMARK                            x       y       z     vdW  Elec       q    Type
REMARK                         _______ _______ _______ _____ _____    ______ ____
ROOT
ATOM      1  C   UNL     1      -0.886   2.838 -23.871  0.00  0.00    +0.098 C 
ATOM      2  N   UNL     1      -0.702   3.027 -25.145  0.00  0.00    +0.233 N 
ATOM      3  H   UNL     1      -0.063   3.822 -25.174  0.00  0.00    +0.202 HD
ATOM      4  H   UNL     1      -0.370   2.143 -25.529  0.00  0.00    +0.202 HD
ATOM      5  C   UNL     1      -1.692   3.413 -25.894  0.00  0.00    +0.134 C 
ATOM      6  C   UNL     1      -2.866   3.610 -25.370  0.00  0.00    +0.086 C 
ATOM      7  C   UNL     1      -3.049   3.420 -24.097  0.00  0.00    -0.030 A 
ATOM      8  C   UNL     1      -4.222   3.617 -23.573  0.00  0.00    +0.053 A 
ATOM      9  C   UNL     1      -4.406   3.428 -22.300  0.00  0.00    +0.162 A 
ATOM     10  C   UNL     1      -3.415   3.042 -21.551  0.00  0.00    +0.159 A 
ATOM     11  C   UNL     1      -2.242   2.845 -22.075  0.00  0.00    +0.058 A 
ATOM     12  C   UNL     1      -2.059   3.034 -23.348  0.00  0.00    +0.007 A 
ENDROOT
BRANCH  10  13
ATOM     13  O   UNL     1      -3.599   2.852 -20.278  0.00  0.00    -0.503 OA
ATOM     14  H   UNL     1      -2.904   2.511 -19.750  0.00  0.00    +0.292 HD
ENDBRANCH  10  13
BRANCH   9  15
ATOM     15  O   UNL     1      -5.579   3.624 -21.776  0.00  0.00    -0.491 OA
ATOM     16  C   UNL     1      -6.470   2.678 -21.804  0.00  0.00    +0.277 C 
ENDBRANCH   9  15
BRANCH   1  17
ATOM     17  C   UNL     1       0.105   2.452 -23.123  0.00  0.00    +0.094 C 
BRANCH  17  21
ATOM     18  C   UNL     1       3.479   4.405 -23.190  0.00  0.00    +0.161 A 
ATOM     19  C   UNL     1       3.480   3.109 -23.095  0.00  0.00    +0.049 A 
ATOM     20  C   UNL     1       2.355   2.458 -23.073  0.00  0.00    +0.007 A 
ATOM     21  C   UNL     1       1.229   3.103 -23.145  0.00  0.00    -0.038 A 
ATOM     22  C   UNL     1       1.228   4.400 -23.240  0.00  0.00    +0.053 A 
ATOM     23  C   UNL     1       2.353   5.051 -23.263  0.00  0.00    +0.159 A 
BRANCH  18  25
ATOM     24  C   UNL     1       5.732   4.411 -23.206  0.00  0.00    +0.277 C 
ATOM     25  O   UNL     1       4.604   5.057 -23.212  0.00  0.00    -0.491 OA
ENDBRANCH  18  25
BRANCH  23  26
ATOM     26  O   UNL     1       2.351   6.347 -23.358  0.00  0.00    -0.503 OA
ATOM     27  H   UNL     1       3.162   6.815 -23.397  0.00  0.00    +0.292 HD
ENDBRANCH  23  26
ENDBRANCH  17  21
ENDBRANCH   1  17
TORSDOF 6
ENDMDL
MODEL 5
REMARK VINA RESULT:    -9.376      2.290      3.293
REMARK INTER + INTRA:         -11.899
REMARK INTER:                 -11.282
REMARK INTRA:                  -0.616
REMARK UNBOUND:                 0.218
REMARK  Name = ZINC000000896218
REMARK  8 active torsions:
REMARK  status: ('A' for Active; 'I' for Inactive)
REMARK    1  A    between atoms: C_1  and  O_2
REMARK    2  A    between atoms: O_2  and  C_3
REMARK    3  A    between atoms: C_6  and  C_7
REMARK    4  A    between atoms: C_7  and  C_8
REMARK    5  A    between atoms: C_14  and  O_15
REMARK    6  A    between atoms: O_15  and  C_16
REMARK    7  A    between atoms: C_17  and  O_18
REMARK    8  A    between atoms: C_22  and  O_23
REMARK                            x       y       z     vdW  Elec       q    Type
REMARK                         _______ _______ _______ _____ _____    ______ ____
ROOT
ATOM      1  C   UNL     1       1.273   3.458 -24.622  0.00  0.00    +0.098 C 
ATOM      2  N   UNL     1       1.302   2.260 -25.127  0.00  0.00    +0.233 N 
ATOM      3  H   UNL     1       0.621   1.752 -24.563  0.00  0.00    +0.202 HD
ATOM      4  H   UNL     1       1.107   2.357 -26.124  0.00  0.00    +0.202 HD
ATOM      5  C   UNL     1       2.377   1.536 -25.023  0.00  0.00    +0.134 C 
ATOM      6  C   UNL     1       3.423   2.010 -24.413  0.00  0.00    +0.086 C 
ATOM      7  C   UNL     1       3.394   3.208 -23.908  0.00  0.00    -0.030 A 
ATOM      8  C   UNL     1       4.440   3.681 -23.299  0.00  0.00    +0.053 A 
ATOM      9  C   UNL     1       4.411   4.879 -22.793  0.00  0.00    +0.162 A 
ATOM     10  C   UNL     1       3.336   5.603 -22.898  0.00  0.00    +0.159 A 
ATOM     11  C   UNL     1       2.290   5.129 -23.507  0.00  0.00    +0.058 A 
ATOM     12  C   UNL     1       2.319   3.932 -24.012  0.00  0.00    +0.007 A 
ENDROOT
BRANCH  10  13
ATOM     13  O   UNL     1       3.308   6.801 -22.393  0.00  0.00    -0.503 OA
ATOM     14  H   UNL     1       3.527   6.934 -21.491  0.00  0.00    +0.292 HD
ENDBRANCH  10  13
BRANCH   9  15
ATOM     15  O   UNL     1       5.457   5.353 -22.184  0.00  0.00    -0.491 OA
ATOM     16  C   UNL     1       6.611   5.359 -22.783  0.00  0.00    +0.277 C 
ENDBRANCH   9  15
BRANCH   1  17
ATOM     17  C   UNL     1       0.198   4.182 -24.727  0.00  0.00    +0.094 C 
BRANCH  17  21
ATOM     18  C   UNL     1      -3.044   3.149 -22.821  0.00  0.00    +0.161 A 
ATOM     19  C   UNL     1      -3.113   3.538 -24.060  0.00  0.00    +0.049 A 
ATOM     20  C   UNL     1      -2.032   3.882 -24.695  0.00  0.00    +0.007 A 
ATOM     21  C   UNL     1      -0.882   3.837 -24.092  0.00  0.00    -0.038 A 
ATOM     22  C   UNL     1      -0.812   3.449 -22.853  0.00  0.00    +0.053 A 
ATOM     23  C   UNL     1      -1.893   3.104 -22.218  0.00  0.00    +0.159 A 
BRANCH  18  25
ATOM     24  C   UNL     1      -5.244   3.421 -22.422  0.00  0.00    +0.277 C 
ATOM     25  O   UNL     1      -4.124   2.804 -22.185  0.00  0.00    -0.491 OA
ENDBRANCH  18  25
BRANCH  23  26
ATOM     26  O   UNL     1      -1.823   2.716 -20.979  0.00  0.00    -0.503 OA
ATOM     27  H   UNL     1      -2.368   3.117 -20.331  0.00  0.00    +0.292 HD
ENDBRANCH  23  26
ENDBRANCH  17  21
ENDBRANCH   1  17
TORSDOF 6
ENDMDL
MODEL 6
REMARK VINA RESULT:    -9.270      0.955      1.544
REMARK INTER + INTRA:         -11.761
REMARK INTER:                 -11.188
REMARK INTRA:                  -0.573
REMARK UNBOUND:                 0.218
REMARK  Name = ZINC000000896218
REMARK  8 active torsions:
REMARK  status: ('A' for Active; 'I' for Inactive)
REMARK    1  A    between atoms: C_1  and  O_2
REMARK    2  A    between atoms: O_2  and  C_3
REMARK    3  A    between atoms: C_6  and  C_7
REMARK    4  A    between atoms: C_7  and  C_8
REMARK    5  A    between atoms: C_14  and  O_15
REMARK    6  A    between atoms: O_15  and  C_16
REMARK    7  A    between atoms: C_17  and  O_18
REMARK    8  A    between atoms: C_22  and  O_23
REMARK                            x       y       z     vdW  Elec       q    Type
REMARK                         _______ _______ _______ _____ _____    ______ ____
ROOT
ATOM      1  C   UNL     1       0.926   3.755 -23.859  0.00  0.00    +0.098 C 
ATOM      2  N   UNL     1       1.058   5.049 -23.837  0.00  0.00    +0.233 N 
ATOM      3  H   UNL     1       1.070   5.300 -24.825  0.00  0.00    +0.202 HD
ATOM      4  H   UNL     1       0.293   5.413 -23.269  0.00  0.00    +0.202 HD
ATOM      5  C   UNL     1       2.151   5.583 -23.380  0.00  0.00    +0.134 C 
ATOM      6  C   UNL     1       3.113   4.824 -22.944  0.00  0.00    +0.086 C 
ATOM      7  C   UNL     1       2.981   3.531 -22.967  0.00  0.00    -0.030 A 
ATOM      8  C   UNL     1       3.943   2.772 -22.532  0.00  0.00    +0.053 A 
ATOM      9  C   UNL     1       3.811   1.478 -22.554  0.00  0.00    +0.162 A 
ATOM     10  C   UNL     1       2.717   0.945 -23.011  0.00  0.00    +0.159 A 
ATOM     11  C   UNL     1       1.756   1.704 -23.446  0.00  0.00    +0.058 A 
ATOM     12  C   UNL     1       1.888   2.996 -23.424  0.00  0.00    +0.007 A 
ENDROOT
BRANCH  10  13
ATOM     13  O   UNL     1       2.586  -0.349 -23.033  0.00  0.00    -0.503 OA
ATOM     14  H   UNL     1       2.427  -0.817 -22.237  0.00  0.00    +0.292 HD
ENDBRANCH  10  13
BRANCH   9  15
ATOM     15  O   UNL     1       4.773   0.720 -22.119  0.00  0.00    -0.491 OA
ATOM     16  C   UNL     1       4.915   0.519 -20.842  0.00  0.00    +0.277 C 
ENDBRANCH   9  15
BRANCH   1  17
ATOM     17  C   UNL     1      -0.168   3.222 -24.316  0.00  0.00    +0.094 C 
BRANCH  17  21
ATOM     18  C   UNL     1      -3.531   3.725 -22.408  0.00  0.00    +0.161 A 
ATOM     19  C   UNL     1      -3.479   3.909 -23.694  0.00  0.00    +0.049 A 
ATOM     20  C   UNL     1      -2.358   3.741 -24.330  0.00  0.00    +0.007 A 
ATOM     21  C   UNL     1      -1.289   3.389 -23.680  0.00  0.00    -0.038 A 
ATOM     22  C   UNL     1      -1.340   3.205 -22.394  0.00  0.00    +0.053 A 
ATOM     23  C   UNL     1      -2.461   3.372 -21.758  0.00  0.00    +0.159 A 
BRANCH  18  25
ATOM     24  C   UNL     1      -5.662   3.110 -22.014  0.00  0.00    +0.277 C 
ATOM     25  O   UNL     1      -4.652   3.892 -21.771  0.00  0.00    -0.491 OA
ENDBRANCH  18  25
BRANCH  23  26
ATOM     26  O   UNL     1      -2.513   3.188 -20.472  0.00  0.00    -0.503 OA
ATOM     27  H   UNL     1      -1.770   2.840 -20.018  0.00  0.00    +0.292 HD
ENDBRANCH  23  26
ENDBRANCH  17  21
ENDBRANCH   1  17
TORSDOF 6
ENDMDL
MODEL 7
REMARK VINA RESULT:    -8.821      2.086      7.119
REMARK INTER + INTRA:         -11.181
REMARK INTER:                 -10.423
REMARK INTRA:                  -0.758
REMARK UNBOUND:                 0.218
REMARK  Name = ZINC000000896218
REMARK  8 active torsions:
REMARK  status: ('A' for Active; 'I' for Inactive)
REMARK    1  A    between atoms: C_1  and  O_2
REMARK    2  A    between atoms: O_2  and  C_3
REMARK    3  A    between atoms: C_6  and  C_7
REMARK    4  A    between atoms: C_7  and  C_8
REMARK    5  A    between atoms: C_14  and  O_15
REMARK    6  A    between atoms: O_15  and  C_16
REMARK    7  A    between atoms: C_17  and  O_18
REMARK    8  A    between atoms: C_22  and  O_23
REMARK                            x       y       z     vdW  Elec       q    Type
REMARK                         _______ _______ _______ _____ _____    ______ ____
ROOT
ATOM      1  C   UNL     1       1.081   2.104 -23.042  0.00  0.00    +0.098 C 
ATOM      2  N   UNL     1       1.285   1.712 -21.819  0.00  0.00    +0.233 N 
ATOM      3  H   UNL     1       1.578   0.742 -21.929  0.00  0.00    +0.202 HD
ATOM      4  H   UNL     1       1.957   2.362 -21.410  0.00  0.00    +0.202 HD
ATOM      5  C   UNL     1       0.289   1.631 -20.988  0.00  0.00    +0.134 C 
ATOM      6  C   UNL     1      -0.912   1.940 -21.380  0.00  0.00    +0.086 C 
ATOM      7  C   UNL     1      -1.116   2.331 -22.603  0.00  0.00    -0.030 A 
ATOM      8  C   UNL     1      -2.316   2.641 -22.995  0.00  0.00    +0.053 A 
ATOM      9  C   UNL     1      -2.520   3.032 -24.218  0.00  0.00    +0.162 A 
ATOM     10  C   UNL     1      -1.523   3.113 -25.048  0.00  0.00    +0.159 A 
ATOM     11  C   UNL     1      -0.323   2.804 -24.657  0.00  0.00    +0.058 A 
ATOM     12  C   UNL     1      -0.119   2.413 -23.434  0.00  0.00    +0.007 A 
ENDROOT
BRANCH  10  13
ATOM     13  O   UNL     1      -1.727   3.505 -26.272  0.00  0.00    -0.503 OA
ATOM     14  H   UNL     1      -2.389   3.092 -26.791  0.00  0.00    +0.292 HD
ENDBRANCH  10  13
BRANCH   9  15
ATOM     15  O   UNL     1      -3.720   3.341 -24.610  0.00  0.00    -0.491 OA
ATOM     16  C   UNL     1      -4.594   3.772 -23.749  0.00  0.00    +0.277 C 
ENDBRANCH   9  15
BRANCH   1  17
ATOM     17  C   UNL     1       2.078   2.185 -23.873  0.00  0.00    +0.094 C 
BRANCH  17  21
ATOM     18  C   UNL     1       5.378   3.960 -22.793  0.00  0.00    +0.161 A 
ATOM     19  C   UNL     1       4.320   4.664 -23.067  0.00  0.00    +0.049 A 
ATOM     20  C   UNL     1       3.220   4.073 -23.427  0.00  0.00    +0.007 A 
ATOM     21  C   UNL     1       3.178   2.776 -23.513  0.00  0.00    -0.038 A 
ATOM     22  C   UNL     1       4.235   2.071 -23.239  0.00  0.00    +0.053 A 
ATOM     23  C   UNL     1       5.335   2.663 -22.879  0.00  0.00    +0.159 A 
BRANCH  18  25
ATOM     24  C   UNL     1       6.518   5.846 -22.327  0.00  0.00    +0.277 C 
ATOM     25  O   UNL     1       6.479   4.551 -22.433  0.00  0.00    -0.491 OA
ENDBRANCH  18  25
BRANCH  23  26
ATOM     26  O   UNL     1       6.393   1.958 -22.606  0.00  0.00    -0.503 OA
ATOM     27  H   UNL     1       6.306   1.134 -22.167  0.00  0.00    +0.292 HD
ENDBRANCH  23  26
ENDBRANCH  17  21
ENDBRANCH   1  17
TORSDOF 6
ENDMDL
MODEL 8
REMARK VINA RESULT:    -8.634      1.546      2.039
REMARK INTER + INTRA:         -10.939
REMARK INTER:                 -10.516
REMARK INTRA:                  -0.423
REMARK UNBOUND:                 0.218
REMARK  Name = ZINC000000896218
REMARK  8 active torsions:
REMARK  status: ('A' for Active; 'I' for Inactive)
REMARK    1  A    between atoms: C_1  and  O_2
REMARK    2  A    between atoms: O_2  and  C_3
REMARK    3  A    between atoms: C_6  and  C_7
REMARK    4  A    between atoms: C_7  and  C_8
REMARK    5  A    between atoms: C_14  and  O_15
REMARK    6  A    between atoms: O_15  and  C_16
REMARK    7  A    between atoms: C_17  and  O_18
REMARK    8  A    between atoms: C_22  and  O_23
REMARK                            x       y       z     vdW  Elec       q    Type
REMARK                         _______ _______ _______ _____ _____    ______ ____
ROOT
ATOM      1  C   UNL     1       1.668   3.306 -22.968  0.00  0.00    +0.098 C 
ATOM      2  N   UNL     1       1.175   4.496 -23.142  0.00  0.00    +0.233 N 
ATOM      3  H   UNL     1       0.736   4.436 -24.060  0.00  0.00    +0.202 HD
ATOM      4  H   UNL     1       0.568   4.683 -22.343  0.00  0.00    +0.202 HD
ATOM      5  C   UNL     1       1.969   5.519 -23.257  0.00  0.00    +0.134 C 
ATOM      6  C   UNL     1       3.257   5.351 -23.198  0.00  0.00    +0.086 C 
ATOM      7  C   UNL     1       3.750   4.161 -23.024  0.00  0.00    -0.030 A 
ATOM      8  C   UNL     1       5.038   3.993 -22.966  0.00  0.00    +0.053 A 
ATOM      9  C   UNL     1       5.532   2.803 -22.792  0.00  0.00    +0.162 A 
ATOM     10  C   UNL     1       4.736   1.781 -22.677  0.00  0.00    +0.159 A 
ATOM     11  C   UNL     1       3.449   1.948 -22.736  0.00  0.00    +0.058 A 
ATOM     12  C   UNL     1       2.956   3.138 -22.909  0.00  0.00    +0.007 A 
ENDROOT
BRANCH  10  13
ATOM     13  O   UNL     1       5.230   0.590 -22.504  0.00  0.00    -0.503 OA
ATOM     14  H   UNL     1       6.071   0.485 -22.102  0.00  0.00    +0.292 HD
ENDBRANCH  10  13
BRANCH   9  15
ATOM     15  O   UNL     1       6.819   2.635 -22.733  0.00  0.00    -0.491 OA
ATOM     16  C   UNL     1       7.603   3.354 -23.481  0.00  0.00    +0.277 C 
ENDBRANCH   9  15
BRANCH   1  17
ATOM     17  C   UNL     1       0.873   2.284 -22.853  0.00  0.00    +0.094 C 
BRANCH  17  21
ATOM     18  C   UNL     1      -2.991   2.806 -22.861  0.00  0.00    +0.161 A 
ATOM     19  C   UNL     1      -2.348   2.728 -21.734  0.00  0.00    +0.049 A 
ATOM     20  C   UNL     1      -1.060   2.554 -21.732  0.00  0.00    +0.007 A 
ATOM     21  C   UNL     1      -0.415   2.458 -22.856  0.00  0.00    -0.038 A 
ATOM     22  C   UNL     1      -1.058   2.536 -23.983  0.00  0.00    +0.053 A 
ATOM     23  C   UNL     1      -2.346   2.710 -23.986  0.00  0.00    +0.159 A 
BRANCH  18  25
ATOM     24  C   UNL     1      -4.897   3.297 -21.765  0.00  0.00    +0.277 C 
ATOM     25  O   UNL     1      -4.280   2.980 -22.865  0.00  0.00    -0.491 OA
ENDBRANCH  18  25
BRANCH  23  26
ATOM     26  O   UNL     1      -2.989   2.788 -25.113  0.00  0.00    -0.503 OA
ATOM     27  H   UNL     1      -3.297   3.618 -25.420  0.00  0.00    +0.292 HD
ENDBRANCH  23  26
ENDBRANCH  17  21
ENDBRANCH   1  17
TORSDOF 6
ENDMDL
MODEL 9
REMARK VINA RESULT:    -8.262      1.696      7.149
REMARK INTER + INTRA:         -10.459
REMARK INTER:                 -10.677
REMARK INTRA:                   0.218
REMARK UNBOUND:                 0.218
REMARK  Name = ZINC000000896218
REMARK  8 active torsions:
REMARK  status: ('A' for Active; 'I' for Inactive)
REMARK    1  A    between atoms: C_1  and  O_2
REMARK    2  A    between atoms: O_2  and  C_3
REMARK    3  A    between atoms: C_6  and  C_7
REMARK    4  A    between atoms: C_7  and  C_8
REMARK    5  A    between atoms: C_14  and  O_15
REMARK    6  A    between atoms: O_15  and  C_16
REMARK    7  A    between atoms: C_17  and  O_18
REMARK    8  A    between atoms: C_22  and  O_23
REMARK                            x       y       z     vdW  Elec       q    Type
REMARK                         _______ _______ _______ _____ _____    ______ ____
ROOT
ATOM      1  C   UNL     1       0.797   2.467 -23.448  0.00  0.00    +0.098 C 
ATOM      2  N   UNL     1       1.427   2.754 -24.549  0.00  0.00    +0.233 N 
ATOM      3  H   UNL     1       2.110   3.452 -24.253  0.00  0.00    +0.202 HD
ATOM      4  H   UNL     1       1.786   1.875 -24.921  0.00  0.00    +0.202 HD
ATOM      5  C   UNL     1       0.799   3.345 -25.521  0.00  0.00    +0.134 C 
ATOM      6  C   UNL     1      -0.459   3.648 -25.393  0.00  0.00    +0.086 C 
ATOM      7  C   UNL     1      -1.088   3.360 -24.293  0.00  0.00    -0.030 A 
ATOM      8  C   UNL     1      -2.346   3.663 -24.165  0.00  0.00    +0.053 A 
ATOM      9  C   UNL     1      -2.976   3.375 -23.064  0.00  0.00    +0.162 A 
ATOM     10  C   UNL     1      -2.346   2.785 -22.092  0.00  0.00    +0.159 A 
ATOM     11  C   UNL     1      -1.089   2.482 -22.220  0.00  0.00    +0.058 A 
ATOM     12  C   UNL     1      -0.460   2.770 -23.320  0.00  0.00    +0.007 A 
ENDROOT
BRANCH  10  13
ATOM     13  O   UNL     1      -2.976   2.497 -20.991  0.00  0.00    -0.503 OA
ATOM     14  H   UNL     1      -3.860   2.187 -21.024  0.00  0.00    +0.292 HD
ENDBRANCH  10  13
BRANCH   9  15
ATOM     15  O   UNL     1      -4.233   3.678 -22.937  0.00  0.00    -0.491 OA
ATOM     16  C   UNL     1      -4.982   3.804 -23.992  0.00  0.00    +0.277 C 
ENDBRANCH   9  15
BRANCH   1  17
ATOM     17  C   UNL     1       1.427   1.876 -22.475  0.00  0.00    +0.094 C 
BRANCH  17  21
ATOM     18  C   UNL     1       5.171   2.715 -21.778  0.00  0.00    +0.161 A 
ATOM     19  C   UNL     1       4.489   3.433 -22.620  0.00  0.00    +0.049 A 
ATOM     20  C   UNL     1       3.241   3.154 -22.853  0.00  0.00    +0.007 A 
ATOM     21  C   UNL     1       2.674   2.155 -22.243  0.00  0.00    -0.038 A 
ATOM     22  C   UNL     1       3.356   1.436 -21.401  0.00  0.00    +0.053 A 
ATOM     23  C   UNL     1       4.603   1.716 -21.169  0.00  0.00    +0.159 A 
BRANCH  18  25
ATOM     24  C   UNL     1       6.775   4.215 -21.280  0.00  0.00    +0.277 C 
ATOM     25  O   UNL     1       6.419   2.993 -21.546  0.00  0.00    -0.491 OA
ENDBRANCH  18  25
BRANCH  23  26
ATOM     26  O   UNL     1       5.285   0.997 -20.326  0.00  0.00    -0.503 OA
ATOM     27  H   UNL     1       5.605   1.381 -19.534  0.00  0.00    +0.292 HD
ENDBRANCH  23  26
ENDBRANCH  17  21
ENDBRANCH   1  17
TORSDOF 6
ENDMDL
