MODEL 1
REMARK VINA RESULT:   -10.440      0.000      0.000
REMARK INTER + INTRA:           5.242
REMARK INTER:                 -14.010
REMARK INTRA:                  19.252
REMARK UNBOUND:                19.953
REMARK  Name = ZINC000004104903
REMARK  14 active torsions:
REMARK  status: ('A' for Active; 'I' for Inactive)
REMARK    1  A    between atoms: C_1  and  O_2
REMARK    2  A    between atoms: O_2  and  C_3
REMARK    3  A    between atoms: C_3  and  C_5
REMARK    4  A    between atoms: C_9  and  C_10
REMARK    5  A    between atoms: C_9  and  C_11
REMARK    6  A    between atoms: C_17  and  C_18
REMARK    7  A    between atoms: C_18  and  C_19
REMARK    8  A    between atoms: C_18  and  C_20
REMARK    9  A    between atoms: C_21  and  O_22
REMARK   10  A    between atoms: O_22  and  C_23
REMARK   11  A    between atoms: C_23  and  C_24
REMARK   12  A    between atoms: C_26  and  O_27
REMARK   13  A    between atoms: O_27  and  C_28
REMARK   14  A    between atoms: C_28  and  C_29
REMARK                            x       y       z     vdW  Elec       q    Type
REMARK                         _______ _______ _______ _____ _____    ______ ____
ROOT
ATOM      1  C   UNL     1      -1.999   3.276 -23.224  0.00  0.00    +0.100 C 
ATOM      2  C   UNL     1      -2.020   4.044 -24.299  0.00  0.00    +0.023 C 
ATOM      3  C   UNL     1      -3.166   4.537 -24.750  0.00  0.00    +0.002 C 
ATOM      4  C   UNL     1      -4.296   4.261 -24.122  0.00  0.00    +0.007 C 
ATOM      5  C   UNL     1      -4.286   3.495 -23.048  0.00  0.00    -0.031 C 
ATOM      6  C   UNL     1      -4.722   2.819 -22.006  0.00  0.00    +0.011 C 
ATOM      7  C   UNL     1      -5.574   3.750 -23.134  0.00  0.00    +0.011 C 
ATOM      8  C   UNL     1      -0.834   2.766 -22.754  0.00  0.00    +0.019 A 
ATOM      9  C   UNL     1       0.325   3.025 -23.363  0.00  0.00    +0.178 A 
ATOM     10  C   UNL     1       1.455   2.523 -22.896  0.00  0.00    +0.177 A 
ATOM     11  C   UNL     1       1.433   1.761 -21.821  0.00  0.00    +0.002 A 
ATOM     12  C   UNL     1       0.288   1.500 -21.212  0.00  0.00    +0.011 A 
ATOM     13  C   UNL     1      -0.843   2.005 -21.682  0.00  0.00    -0.039 A 
ATOM     14  C   UNL     1      -1.990   1.737 -21.064  0.00  0.00    +0.036 C 
ATOM     15  C   UNL     1      -3.132   2.237 -21.524  0.00  0.00    +0.010 C 
ATOM     16  C   UNL     1      -3.140   3.004 -22.600  0.00  0.00    +0.016 C 
ENDROOT
BRANCH  11  17
ATOM     17  C   UNL     1       2.521   1.284 -21.380  0.00  0.00    +0.017 C 
ATOM     18  C   UNL     1       2.965   1.702 -20.250  0.00  0.00    +0.012 C 
ATOM     19  C   UNL     1       3.184   0.375 -22.068  0.00  0.00    +0.012 C 
ENDBRANCH  11  17
BRANCH   1  20
ATOM     20  C   UNL     1      -1.121   3.611 -23.880  0.00  0.00    +0.318 C 
ATOM     21  O   UNL     1      -0.960   3.214 -24.186  0.00  0.00    -0.250 OA
BRANCH  20  23
ATOM     22  C   UNL     1      -0.744   5.694 -23.081  0.00  0.00    +0.280 C 
ATOM     23  O   UNL     1      -0.509   4.760 -23.968  0.00  0.00    -0.467 OA
ENDBRANCH  20  23
ENDBRANCH   1  20
BRANCH   9  24
ATOM     24  O   UNL     1       0.461   3.779 -24.451  0.00  0.00    -0.422 OA
BRANCH  24  25
ATOM     25  C   UNL     1       1.165   3.505 -25.476  0.00  0.00    +0.309 C 
ATOM     26  O   UNL     1       1.563   4.499 -26.250  0.00  0.00    -0.251 OA
ATOM     27  C   UNL     1       1.485   2.281 -25.757  0.00  0.00    +0.136 C 
ENDBRANCH  24  25
ENDBRANCH   9  24
BRANCH  10  28
ATOM     28  O   UNL     1       2.752   2.854 -23.635  0.00  0.00    -0.422 OA
BRANCH  28  29
ATOM     29  C   UNL     1       3.782   3.811 -23.254  0.00  0.00    +0.309 C 
ATOM     30  O   UNL     1       3.445   5.078 -22.875  0.00  0.00    -0.251 OA
ATOM     31  C   UNL     1       5.066   3.485 -23.262  0.00  0.00    +0.136 C 
ENDBRANCH  28  29
ENDBRANCH  10  28
TORSDOF 7
ENDMDL
MODEL 2
REMARK VINA RESULT:    -9.467      1.602      3.531
REMARK INTER + INTRA:           6.612
REMARK INTER:                 -12.251
REMARK INTRA:                  18.863
REMARK UNBOUND:                19.953
REMARK  Name = ZINC000004104903
REMARK  14 active torsions:
REMARK  status: ('A' for Active; 'I' for Inactive)
REMARK    1  A    between atoms: C_1  and  O_2
REMARK    2  A    between atoms: O_2  and  C_3
REMARK    3  A    between atoms: C_3  and  C_5
REMARK    4  A    between atoms: C_9  and  C_10
REMARK    5  A    between atoms: C_9  and  C_11
REMARK    6  A    between atoms: C_17  and  C_18
REMARK    7  A    between atoms: C_18  and  C_19
REMARK    8  A    between atoms: C_18  and  C_20
REMARK    9  A    between atoms: C_21  and  O_22
REMARK   10  A    between atoms: O_22  and  C_23
REMARK   11  A    between atoms: C_23  and  C_24
REMARK   12  A    between atoms: C_26  and  O_27
REMARK   13  A    between atoms: O_27  and  C_28
REMARK   14  A    between atoms: C_28  and  C_29
REMARK                            x       y       z     vdW  Elec       q    Type
REMARK                         _______ _______ _______ _____ _____    ______ ____
ROOT
ATOM      1  C   UNL     1      -3.236   2.918 -22.622  0.00  0.00    +0.100 C 
ATOM      2  C   UNL     1      -3.182   2.470 -21.380  0.00  0.00    +0.023 C 
ATOM      3  C   UNL     1      -4.290   2.348 -20.661  0.00  0.00    +0.002 C 
ATOM      4  C   UNL     1      -5.458   2.676 -21.187  0.00  0.00    +0.007 C 
ATOM      5  C   UNL     1      -5.523   3.124 -22.427  0.00  0.00    -0.031 C 
ATOM      6  C   UNL     1      -6.028   3.585 -23.551  0.00  0.00    +0.011 C 
ATOM      7  C   UNL     1      -6.797   3.163 -22.104  0.00  0.00    +0.011 C 
ATOM      8  C   UNL     1      -2.110   3.047 -23.365  0.00  0.00    +0.019 A 
ATOM      9  C   UNL     1      -0.915   2.725 -22.865  0.00  0.00    +0.178 A 
ATOM     10  C   UNL     1       0.177   2.855 -23.600  0.00  0.00    +0.177 A 
ATOM     11  C   UNL     1       0.080   3.305 -24.834  0.00  0.00    +0.002 A 
ATOM     12  C   UNL     1      -1.101   3.626 -25.337  0.00  0.00    +0.011 A 
ATOM     13  C   UNL     1      -2.194   3.495 -24.599  0.00  0.00    -0.039 A 
ATOM     14  C   UNL     1      -3.377   3.820 -25.112  0.00  0.00    +0.036 C 
ATOM     15  C   UNL     1      -4.480   3.694 -24.383  0.00  0.00    +0.010 C 
ATOM     16  C   UNL     1      -4.414   3.245 -23.142  0.00  0.00    +0.016 C 
ENDROOT
BRANCH  11  17
ATOM     17  C   UNL     1       1.131   3.426 -25.531  0.00  0.00    +0.017 C 
ATOM     18  C   UNL     1       1.549   4.606 -25.818  0.00  0.00    +0.012 C 
ATOM     19  C   UNL     1       1.783   2.361 -25.954  0.00  0.00    +0.012 C 
ENDBRANCH  11  17
BRANCH   1  20
ATOM     20  C   UNL     1      -2.317   2.593 -22.018  0.00  0.00    +0.318 C 
ATOM     21  O   UNL     1      -2.098   2.167 -22.235  0.00  0.00    -0.250 OA
BRANCH  20  23
ATOM     22  C   UNL     1      -2.342   4.121 -20.349  0.00  0.00    +0.280 C 
ATOM     23  O   UNL     1      -1.779   3.099 -20.942  0.00  0.00    -0.467 OA
ENDBRANCH  20  23
ENDBRANCH   1  20
BRANCH   9  24
ATOM     24  O   UNL     1      -0.704   2.263 -21.636  0.00  0.00    -0.422 OA
BRANCH  24  25
ATOM     25  C   UNL     1       0.102   1.335 -21.306  0.00  0.00    +0.309 C 
ATOM     26  O   UNL     1       0.155   0.250 -22.060  0.00  0.00    -0.251 OA
ATOM     27  C   UNL     1       0.854   1.447 -20.256  0.00  0.00    +0.136 C 
ENDBRANCH  24  25
ENDBRANCH   9  24
BRANCH  10  28
ATOM     28  O   UNL     1       1.518   2.471 -22.973  0.00  0.00    -0.422 OA
BRANCH  28  29
ATOM     29  C   UNL     1       2.680   3.320 -22.753  0.00  0.00    +0.309 C 
ATOM     30  O   UNL     1       2.533   4.668 -22.591  0.00  0.00    -0.251 OA
ATOM     31  C   UNL     1       3.905   2.818 -22.705  0.00  0.00    +0.136 C 
ENDBRANCH  28  29
ENDBRANCH  10  28
TORSDOF 7
ENDMDL
MODEL 3
REMARK VINA RESULT:    -8.419      1.926      6.537
REMARK INTER + INTRA:           8.090
REMARK INTER:                 -10.572
REMARK INTRA:                  18.661
REMARK UNBOUND:                19.953
REMARK  Name = ZINC000004104903
REMARK  14 active torsions:
REMARK  status: ('A' for Active; 'I' for Inactive)
REMARK    1  A    between atoms: C_1  and  O_2
REMARK    2  A    between atoms: O_2  and  C_3
REMARK    3  A    between atoms: C_3  and  C_5
REMARK    4  A    between atoms: C_9  and  C_10
REMARK    5  A    between atoms: C_9  and  C_11
REMARK    6  A    between atoms: C_17  and  C_18
REMARK    7  A    between atoms: C_18  and  C_19
REMARK    8  A    between atoms: C_18  and  C_20
REMARK    9  A    between atoms: C_21  and  O_22
REMARK   10  A    between atoms: O_22  and  C_23
REMARK   11  A    between atoms: C_23  and  C_24
REMARK   12  A    between atoms: C_26  and  O_27
REMARK   13  A    between atoms: O_27  and  C_28
REMARK   14  A    between atoms: C_28  and  C_29
REMARK                            x       y       z     vdW  Elec       q    Type
REMARK                         _______ _______ _______ _____ _____    ______ ____
ROOT
ATOM      1  C   UNL     1       0.349   2.736 -23.141  0.00  0.00    +0.100 C 
ATOM      2  C   UNL     1       0.505   2.598 -21.836  0.00  0.00    +0.023 C 
ATOM      3  C   UNL     1       1.684   2.253 -21.333  0.00  0.00    +0.002 C 
ATOM      4  C   UNL     1       2.711   2.046 -22.141  0.00  0.00    +0.007 C 
ATOM      5  C   UNL     1       2.564   2.182 -23.445  0.00  0.00    -0.031 C 
ATOM      6  C   UNL     1       2.859   2.201 -24.728  0.00  0.00    +0.011 C 
ATOM      7  C   UNL     1       3.835   1.847 -23.392  0.00  0.00    +0.011 C 
ATOM      8  C   UNL     1      -0.851   3.088 -23.664  0.00  0.00    +0.019 A 
ATOM      9  C   UNL     1      -1.908   3.304 -22.879  0.00  0.00    +0.178 A 
ATOM     10  C   UNL     1      -3.073   3.647 -23.401  0.00  0.00    +0.177 A 
ATOM     11  C   UNL     1      -3.188   3.775 -24.707  0.00  0.00    +0.002 A 
ATOM     12  C   UNL     1      -2.145   3.562 -25.493  0.00  0.00    +0.011 A 
ATOM     13  C   UNL     1      -0.978   3.218 -24.967  0.00  0.00    -0.039 A 
ATOM     14  C   UNL     1       0.066   3.006 -25.764  0.00  0.00    +0.036 C 
ATOM     15  C   UNL     1       1.241   2.661 -25.250  0.00  0.00    +0.010 C 
ATOM     16  C   UNL     1       1.386   2.526 -23.944  0.00  0.00    +0.016 C 
ENDROOT
BRANCH  11  17
ATOM     17  C   UNL     1      -4.308   4.103 -25.199  0.00  0.00    +0.017 C 
ATOM     18  C   UNL     1      -4.953   3.239 -25.897  0.00  0.00    +0.012 C 
ATOM     19  C   UNL     1      -4.802   5.310 -24.999  0.00  0.00    +0.012 C 
ENDBRANCH  11  17
BRANCH   1  20
ATOM     20  C   UNL     1      -0.427   2.876 -22.308  0.00  0.00    +0.318 C 
ATOM     21  O   UNL     1      -0.592   3.376 -22.295  0.00  0.00    -0.250 OA
BRANCH  20  23
ATOM     22  C   UNL     1      -0.734   0.742 -21.621  0.00  0.00    +0.280 C 
ATOM     23  O   UNL     1      -0.923   2.027 -21.450  0.00  0.00    -0.467 OA
ENDBRANCH  20  23
ENDBRANCH   1  20
BRANCH   9  24
ATOM     24  O   UNL     1      -1.903   3.204 -21.552  0.00  0.00    -0.422 OA
BRANCH  24  25
ATOM     25  C   UNL     1      -2.312   4.082 -20.727  0.00  0.00    +0.309 C 
ATOM     26  O   UNL     1      -2.071   5.355 -20.990  0.00  0.00    -0.251 OA
ATOM     27  C   UNL     1      -2.951   3.740 -19.652  0.00  0.00    +0.136 C 
ENDBRANCH  24  25
ENDBRANCH   9  24
BRANCH  10  28
ATOM     28  O   UNL     1      -4.248   3.882 -22.451  0.00  0.00    -0.422 OA
BRANCH  28  29
ATOM     29  C   UNL     1      -5.234   2.914 -21.988  0.00  0.00    +0.309 C 
ATOM     30  O   UNL     1      -4.846   1.815 -21.279  0.00  0.00    -0.251 OA
ATOM     31  C   UNL     1      -6.526   3.070 -22.239  0.00  0.00    +0.136 C 
ENDBRANCH  28  29
ENDBRANCH  10  28
TORSDOF 7
ENDMDL
MODEL 4
REMARK VINA RESULT:    -8.328      2.363      7.066
REMARK INTER + INTRA:           8.218
REMARK INTER:                 -10.701
REMARK INTRA:                  18.918
REMARK UNBOUND:                19.953
REMARK  Name = ZINC000004104903
REMARK  14 active torsions:
REMARK  status: ('A' for Active; 'I' for Inactive)
REMARK    1  A    between atoms: C_1  and  O_2
REMARK    2  A    between atoms: O_2  and  C_3
REMARK    3  A    between atoms: C_3  and  C_5
REMARK    4  A    between atoms: C_9  and  C_10
REMARK    5  A    between atoms: C_9  and  C_11
REMARK    6  A    between atoms: C_17  and  C_18
REMARK    7  A    between atoms: C_18  and  C_19
REMARK    8  A    between atoms: C_18  and  C_20
REMARK    9  A    between atoms: C_21  and  O_22
REMARK   10  A    between atoms: O_22  and  C_23
REMARK   11  A    between atoms: C_23  and  C_24
REMARK   12  A    between atoms: C_26  and  O_27
REMARK   13  A    between atoms: O_27  and  C_28
REMARK   14  A    between atoms: C_28  and  C_29
REMARK                            x       y       z     vdW  Elec       q    Type
REMARK                         _______ _______ _______ _____ _____    ______ ____
ROOT
ATOM      1  C   UNL     1       4.921   4.168 -22.731  0.00  0.00    +0.100 C 
ATOM      2  C   UNL     1       5.509   2.985 -22.727  0.00  0.00    +0.023 C 
ATOM      3  C   UNL     1       6.820   2.886 -22.551  0.00  0.00    +0.002 C 
ATOM      4  C   UNL     1       7.547   3.977 -22.378  0.00  0.00    +0.007 C 
ATOM      5  C   UNL     1       6.969   5.164 -22.380  0.00  0.00    -0.031 C 
ATOM      6  C   UNL     1       6.827   6.470 -22.314  0.00  0.00    +0.011 C 
ATOM      7  C   UNL     1       8.221   5.519 -22.183  0.00  0.00    +0.011 C 
ATOM      8  C   UNL     1       3.583   4.280 -22.909  0.00  0.00    +0.019 A 
ATOM      9  C   UNL     1       2.819   3.200 -23.087  0.00  0.00    +0.178 A 
ATOM     10  C   UNL     1       1.514   3.321 -23.260  0.00  0.00    +0.177 A 
ATOM     11  C   UNL     1       0.966   4.519 -23.257  0.00  0.00    +0.002 A 
ATOM     12  C   UNL     1       1.717   5.595 -23.082  0.00  0.00    +0.011 A 
ATOM     13  C   UNL     1       3.024   5.471 -22.909  0.00  0.00    -0.039 A 
ATOM     14  C   UNL     1       3.771   6.558 -22.733  0.00  0.00    +0.036 C 
ATOM     15  C   UNL     1       5.083   6.448 -22.558  0.00  0.00    +0.010 C 
ATOM     16  C   UNL     1       5.659   5.258 -22.556  0.00  0.00    +0.016 C 
ENDROOT
BRANCH  11  17
ATOM     17  C   UNL     1      -0.285   4.627 -23.424  0.00  0.00    +0.017 C 
ATOM     18  C   UNL     1      -1.017   4.942 -22.418  0.00  0.00    +0.012 C 
ATOM     19  C   UNL     1      -0.825   4.419 -24.609  0.00  0.00    +0.012 C 
ENDBRANCH  11  17
BRANCH   1  20
ATOM     20  C   UNL     1       4.446   3.133 -22.865  0.00  0.00    +0.318 C 
ATOM     21  O   UNL     1       4.316   3.057 -23.369  0.00  0.00    -0.250 OA
BRANCH  20  23
ATOM     22  C   UNL     1       4.924   2.096 -20.911  0.00  0.00    +0.280 C 
ATOM     23  O   UNL     1       4.203   2.186 -22.001  0.00  0.00    -0.467 OA
ENDBRANCH  20  23
ENDBRANCH   1  20
BRANCH   9  24
ATOM     24  O   UNL     1       3.267   1.947 -23.107  0.00  0.00    -0.422 OA
BRANCH  24  25
ATOM     25  C   UNL     1       2.880   1.020 -23.888  0.00  0.00    +0.309 C 
ATOM     26  O   UNL     1       2.500  -0.131 -23.360  0.00  0.00    -0.251 OA
ATOM     27  C   UNL     1       2.859   1.196 -25.172  0.00  0.00    +0.136 C 
ENDBRANCH  24  25
ENDBRANCH   9  24
BRANCH  10  28
ATOM     28  O   UNL     1       0.691   2.048 -23.458  0.00  0.00    -0.422 OA
BRANCH  28  29
ATOM     29  C   UNL     1      -0.401   1.549 -22.634  0.00  0.00    +0.309 C 
ATOM     30  O   UNL     1      -1.652   1.395 -23.159  0.00  0.00    -0.251 OA
ATOM     31  C   UNL     1      -0.218   1.232 -21.361  0.00  0.00    +0.136 C 
ENDBRANCH  28  29
ENDBRANCH  10  28
TORSDOF 7
ENDMDL
MODEL 5
REMARK VINA RESULT:    -8.117      1.835      3.765
REMARK INTER + INTRA:           8.515
REMARK INTER:                 -11.439
REMARK INTRA:                  19.953
REMARK UNBOUND:                19.953
REMARK  Name = ZINC000004104903
REMARK  14 active torsions:
REMARK  status: ('A' for Active; 'I' for Inactive)
REMARK    1  A    between atoms: C_1  and  O_2
REMARK    2  A    between atoms: O_2  and  C_3
REMARK    3  A    between atoms: C_3  and  C_5
REMARK    4  A    between atoms: C_9  and  C_10
REMARK    5  A    between atoms: C_9  and  C_11
REMARK    6  A    between atoms: C_17  and  C_18
REMARK    7  A    between atoms: C_18  and  C_19
REMARK    8  A    between atoms: C_18  and  C_20
REMARK    9  A    between atoms: C_21  and  O_22
REMARK   10  A    between atoms: O_22  and  C_23
REMARK   11  A    between atoms: C_23  and  C_24
REMARK   12  A    between atoms: C_26  and  O_27
REMARK   13  A    between atoms: O_27  and  C_28
REMARK   14  A    between atoms: C_28  and  C_29
REMARK                            x       y       z     vdW  Elec       q    Type
REMARK                         _______ _______ _______ _____ _____    ______ ____
ROOT
ATOM      1  C   UNL     1       0.083   3.227 -23.103  0.00  0.00    +0.100 C 
ATOM      2  C   UNL     1      -0.215   1.960 -22.879  0.00  0.00    +0.023 C 
ATOM      3  C   UNL     1      -1.475   1.546 -22.929  0.00  0.00    +0.002 C 
ATOM      4  C   UNL     1      -2.441   2.406 -23.206  0.00  0.00    +0.007 C 
ATOM      5  C   UNL     1      -2.153   3.674 -23.432  0.00  0.00    -0.031 C 
ATOM      6  C   UNL     1      -2.319   4.950 -23.708  0.00  0.00    +0.011 C 
ATOM      7  C   UNL     1      -3.460   3.707 -23.578  0.00  0.00    +0.011 C 
ATOM      8  C   UNL     1       1.366   3.659 -23.054  0.00  0.00    +0.019 A 
ATOM      9  C   UNL     1       2.366   2.819 -22.778  0.00  0.00    +0.178 A 
ATOM     10  C   UNL     1       3.614   3.252 -22.733  0.00  0.00    +0.177 A 
ATOM     11  C   UNL     1       3.870   4.524 -22.963  0.00  0.00    +0.002 A 
ATOM     12  C   UNL     1       2.884   5.364 -23.237  0.00  0.00    +0.011 A 
ATOM     13  C   UNL     1       1.634   4.927 -23.282  0.00  0.00    -0.039 A 
ATOM     14  C   UNL     1       0.650   5.777 -23.559  0.00  0.00    +0.036 C 
ATOM     15  C   UNL     1      -0.608   5.353 -23.607  0.00  0.00    +0.010 C 
ATOM     16  C   UNL     1      -0.894   4.083 -23.381  0.00  0.00    +0.016 C 
ENDROOT
BRANCH  11  17
ATOM     17  C   UNL     1       5.069   4.931 -22.917  0.00  0.00    +0.017 C 
ATOM     18  C   UNL     1       5.359   5.912 -22.141  0.00  0.00    +0.012 C 
ATOM     19  C   UNL     1       6.001   4.358 -23.654  0.00  0.00    +0.012 C 
ENDBRANCH  11  17
BRANCH   1  20
ATOM     20  C   UNL     1       0.790   2.359 -22.853  0.00  0.00    +0.318 C 
ATOM     21  O   UNL     1       1.038   2.196 -23.287  0.00  0.00    -0.250 OA
BRANCH  20  23
ATOM     22  C   UNL     1       0.091   1.612 -20.834  0.00  0.00    +0.280 C 
ATOM     23  O   UNL     1       1.044   1.764 -21.720  0.00  0.00    -0.467 OA
ENDBRANCH  20  23
ENDBRANCH   1  20
BRANCH   9  24
ATOM     24  O   UNL     1       2.221   1.520 -22.531  0.00  0.00    -0.422 OA
BRANCH  24  25
ATOM     25  C   UNL     1       2.657   0.562 -23.246  0.00  0.00    +0.309 C 
ATOM     26  O   UNL     1       2.373  -0.676 -22.881  0.00  0.00    -0.251 OA
ATOM     27  C   UNL     1       3.362   0.791 -24.309  0.00  0.00    +0.136 C 
ENDBRANCH  24  25
ENDBRANCH   9  24
BRANCH  10  28
ATOM     28  O   UNL     1       4.717   2.243 -22.411  0.00  0.00    -0.422 OA
BRANCH  28  29
ATOM     29  C   UNL     1       5.223   1.855 -21.101  0.00  0.00    +0.309 C 
ATOM     30  O   UNL     1       5.832   2.773 -20.295  0.00  0.00    -0.251 OA
ATOM     31  C   UNL     1       5.110   0.613 -20.656  0.00  0.00    +0.136 C 
ENDBRANCH  28  29
ENDBRANCH  10  28
TORSDOF 7
ENDMDL
