MODEL 1
REMARK VINA RESULT:    -9.746      0.000      0.000
REMARK INTER + INTRA:         -10.031
REMARK INTER:                 -10.031
REMARK INTRA:                   0.000
REMARK UNBOUND:                 0.000
REMARK  Name = ZINC000004104718
REMARK  5 active torsions:
REMARK  status: ('A' for Active; 'I' for Inactive)
REMARK    1  A    between atoms: C_1  and  C_2
REMARK    2  A    between atoms: C_2  and  C_3
REMARK    3  A    between atoms: C_6  and  C_7
REMARK    4  A    between atoms: C_6  and  O_8
REMARK    5  A    between atoms: C_11  and  C_12
REMARK                            x       y       z     vdW  Elec       q    Type
REMARK                         _______ _______ _______ _____ _____    ______ ____
ROOT
ATOM      1  C   UNL     1      -0.097   1.865 -21.392  0.00  0.00    +0.011 C 
ATOM      2  C   UNL     1      -0.894   2.269 -22.337  0.00  0.00    -0.028 C 
ATOM      3  C   UNL     1      -1.977   2.675 -22.931  0.00  0.00    +0.005 C 
ATOM      4  C   UNL     1      -2.952   3.086 -23.687  0.00  0.00    +0.037 C 
ATOM      5  C   UNL     1      -2.823   3.315 -24.960  0.00  0.00    +0.067 C 
ATOM      6  C   UNL     1      -3.975   3.710 -25.414  0.00  0.00    +0.036 C 
ATOM      7  C   UNL     1      -4.814   3.727 -24.423  0.00  0.00    +0.017 C 
ATOM      8  C   UNL     1      -2.438   3.467 -26.192  0.00  0.00    +0.041 C 
ATOM      9  C   UNL     1      -4.182   3.341 -23.354  0.00  0.00    +0.032 C 
ATOM     10  C   UNL     1      -4.743   3.248 -22.185  0.00  0.00    +0.140 C 
ATOM     11  C   UNL     1      -4.210   2.877 -21.059  0.00  0.00    +0.075 C 
ATOM     12  C   UNL     1      -2.986   2.507 -20.824  0.00  0.00    +0.012 C 
ATOM     13  O   UNL     1      -6.002   3.569 -22.136  0.00  0.00    -0.297 OA
ATOM     14  C   UNL     1      -5.441   3.650 -23.248  0.00  0.00    +0.019 C 
ATOM     15  C   UNL     1      -0.073   2.260 -23.344  0.00  0.00    +0.011 C 
ATOM     16  C   UNL     1      -1.993   2.417 -21.657  0.00  0.00    -0.001 C 
ENDROOT
BRANCH   5  17
ATOM     17  O   UNL     1      -1.591   2.950 -24.763  0.00  0.00    -0.389 OA
ATOM     18  H   UNL     1      -0.993   3.585 -25.190  0.00  0.00    +0.210 HD
ENDBRANCH   5  17
TORSDOF 1
ENDMDL
MODEL 2
REMARK VINA RESULT:    -9.708      1.436      3.084
REMARK INTER + INTRA:          -9.991
REMARK INTER:                  -9.991
REMARK INTRA:                   0.000
REMARK UNBOUND:                 0.000
REMARK  Name = ZINC000004104718
REMARK  5 active torsions:
REMARK  status: ('A' for Active; 'I' for Inactive)
REMARK    1  A    between atoms: C_1  and  C_2
REMARK    2  A    between atoms: C_2  and  C_3
REMARK    3  A    between atoms: C_6  and  C_7
REMARK    4  A    between atoms: C_6  and  O_8
REMARK    5  A    between atoms: C_11  and  C_12
REMARK                            x       y       z     vdW  Elec       q    Type
REMARK                         _______ _______ _______ _____ _____    ______ ____
ROOT
ATOM      1  C   UNL     1       0.465   2.249 -23.266  0.00  0.00    +0.011 C 
ATOM      2  C   UNL     1      -0.774   2.406 -22.907  0.00  0.00    -0.028 C 
ATOM      3  C   UNL     1      -2.028   2.749 -22.960  0.00  0.00    +0.005 C 
ATOM      4  C   UNL     1      -3.294   3.017 -22.834  0.00  0.00    +0.037 C 
ATOM      5  C   UNL     1      -3.986   2.724 -21.773  0.00  0.00    +0.067 C 
ATOM      6  C   UNL     1      -5.207   3.122 -21.969  0.00  0.00    +0.036 C 
ATOM      7  C   UNL     1      -5.271   3.660 -23.150  0.00  0.00    +0.017 C 
ATOM      8  C   UNL     1      -4.442   2.331 -20.621  0.00  0.00    +0.041 C 
ATOM      9  C   UNL     1      -4.088   3.595 -23.685  0.00  0.00    +0.032 C 
ATOM     10  C   UNL     1      -3.814   4.050 -24.872  0.00  0.00    +0.140 C 
ATOM     11  C   UNL     1      -2.675   4.038 -25.501  0.00  0.00    +0.075 C 
ATOM     12  C   UNL     1      -1.532   3.568 -25.098  0.00  0.00    +0.012 C 
ATOM     13  O   UNL     1      -4.808   4.588 -25.514  0.00  0.00    -0.297 OA
ATOM     14  C   UNL     1      -5.046   4.144 -24.373  0.00  0.00    +0.019 C 
ATOM     15  C   UNL     1      -0.736   1.873 -21.723  0.00  0.00    +0.011 C 
ATOM     16  C   UNL     1      -1.244   2.995 -23.967  0.00  0.00    -0.001 C 
ENDROOT
BRANCH   5  17
ATOM     17  O   UNL     1      -2.859   2.244 -21.337  0.00  0.00    -0.389 OA
ATOM     18  H   UNL     1      -2.806   1.298 -21.549  0.00  0.00    +0.210 HD
ENDBRANCH   5  17
TORSDOF 1
ENDMDL
MODEL 3
REMARK VINA RESULT:    -9.257      1.155      3.485
REMARK INTER + INTRA:          -9.528
REMARK INTER:                  -9.528
REMARK INTRA:                   0.000
REMARK UNBOUND:                 0.000
REMARK  Name = ZINC000004104718
REMARK  5 active torsions:
REMARK  status: ('A' for Active; 'I' for Inactive)
REMARK    1  A    between atoms: C_1  and  C_2
REMARK    2  A    between atoms: C_2  and  C_3
REMARK    3  A    between atoms: C_6  and  C_7
REMARK    4  A    between atoms: C_6  and  O_8
REMARK    5  A    between atoms: C_11  and  C_12
REMARK                            x       y       z     vdW  Elec       q    Type
REMARK                         _______ _______ _______ _____ _____    ______ ____
ROOT
ATOM      1  C   UNL     1      -4.103   2.461 -20.168  0.00  0.00    +0.011 C 
ATOM      2  C   UNL     1      -3.949   2.761 -21.423  0.00  0.00    -0.028 C 
ATOM      3  C   UNL     1      -3.366   2.974 -22.566  0.00  0.00    +0.005 C 
ATOM      4  C   UNL     1      -2.961   3.229 -23.775  0.00  0.00    +0.037 C 
ATOM      5  C   UNL     1      -3.760   3.583 -24.739  0.00  0.00    +0.067 C 
ATOM      6  C   UNL     1      -3.043   3.759 -25.808  0.00  0.00    +0.036 C 
ATOM      7  C   UNL     1      -1.803   3.514 -25.507  0.00  0.00    +0.017 C 
ATOM      8  C   UNL     1      -4.751   3.914 -25.512  0.00  0.00    +0.041 C 
ATOM      9  C   UNL     1      -1.752   3.186 -24.250  0.00  0.00    +0.032 C 
ATOM     10  C   UNL     1      -0.649   2.880 -23.635  0.00  0.00    +0.140 C 
ATOM     11  C   UNL     1      -0.483   2.539 -22.391  0.00  0.00    +0.075 C 
ATOM     12  C   UNL     1      -1.379   2.422 -21.456  0.00  0.00    +0.012 C 
ATOM     13  O   UNL     1       0.431   2.919 -24.358  0.00  0.00    -0.297 OA
ATOM     14  C   UNL     1      -0.642   3.209 -24.926  0.00  0.00    +0.019 C 
ATOM     15  C   UNL     1      -5.182   3.011 -21.749  0.00  0.00    +0.011 C 
ATOM     16  C   UNL     1      -2.662   2.615 -21.535  0.00  0.00    -0.001 C 
ENDROOT
BRANCH   5  17
ATOM     17  O   UNL     1      -4.683   3.475 -23.830  0.00  0.00    -0.389 OA
ATOM     18  H   UNL     1      -4.506   2.696 -23.279  0.00  0.00    +0.210 HD
ENDBRANCH   5  17
TORSDOF 1
ENDMDL
MODEL 4
REMARK VINA RESULT:    -9.041      1.456      2.640
REMARK INTER + INTRA:          -9.305
REMARK INTER:                  -9.305
REMARK INTRA:                   0.000
REMARK UNBOUND:                 0.000
REMARK  Name = ZINC000004104718
REMARK  5 active torsions:
REMARK  status: ('A' for Active; 'I' for Inactive)
REMARK    1  A    between atoms: C_1  and  C_2
REMARK    2  A    between atoms: C_2  and  C_3
REMARK    3  A    between atoms: C_6  and  C_7
REMARK    4  A    between atoms: C_6  and  O_8
REMARK    5  A    between atoms: C_11  and  C_12
REMARK                            x       y       z     vdW  Elec       q    Type
REMARK                         _______ _______ _______ _____ _____    ______ ____
ROOT
ATOM      1  C   UNL     1      -3.509   3.154 -19.970  0.00  0.00    +0.011 C 
ATOM      2  C   UNL     1      -2.966   3.204 -21.149  0.00  0.00    -0.028 C 
ATOM      3  C   UNL     1      -2.856   3.323 -22.440  0.00  0.00    +0.005 C 
ATOM      4  C   UNL     1      -2.556   3.413 -23.702  0.00  0.00    +0.037 C 
ATOM      5  C   UNL     1      -1.344   3.300 -24.160  0.00  0.00    +0.067 C 
ATOM      6  C   UNL     1      -1.390   3.439 -25.451  0.00  0.00    +0.036 C 
ATOM      7  C   UNL     1      -2.628   3.639 -25.791  0.00  0.00    +0.017 C 
ATOM      8  C   UNL     1      -0.068   3.151 -24.356  0.00  0.00    +0.041 C 
ATOM      9  C   UNL     1      -3.349   3.623 -24.710  0.00  0.00    +0.032 C 
ATOM     10  C   UNL     1      -4.638   3.793 -24.707  0.00  0.00    +0.140 C 
ATOM     11  C   UNL     1      -5.452   3.797 -23.693  0.00  0.00    +0.075 C 
ATOM     12  C   UNL     1      -5.178   3.630 -22.433  0.00  0.00    +0.012 C 
ATOM     13  O   UNL     1      -5.184   3.986 -25.870  0.00  0.00    -0.297 OA
ATOM     14  C   UNL     1      -3.948   3.820 -25.847  0.00  0.00    +0.019 C 
ATOM     15  C   UNL     1      -1.721   3.006 -20.834  0.00  0.00    +0.011 C 
ATOM     16  C   UNL     1      -4.023   3.419 -21.876  0.00  0.00    -0.001 C 
ENDROOT
BRANCH   5  17
ATOM     17  O   UNL     1      -1.033   3.129 -22.909  0.00  0.00    -0.389 OA
ATOM     18  H   UNL     1      -0.839   2.192 -22.748  0.00  0.00    +0.210 HD
ENDBRANCH   5  17
TORSDOF 1
ENDMDL
MODEL 5
REMARK VINA RESULT:    -8.986      1.210      2.091
REMARK INTER + INTRA:          -9.249
REMARK INTER:                  -9.249
REMARK INTRA:                   0.000
REMARK UNBOUND:                 0.000
REMARK  Name = ZINC000004104718
REMARK  5 active torsions:
REMARK  status: ('A' for Active; 'I' for Inactive)
REMARK    1  A    between atoms: C_1  and  C_2
REMARK    2  A    between atoms: C_2  and  C_3
REMARK    3  A    between atoms: C_6  and  C_7
REMARK    4  A    between atoms: C_6  and  O_8
REMARK    5  A    between atoms: C_11  and  C_12
REMARK                            x       y       z     vdW  Elec       q    Type
REMARK                         _______ _______ _______ _____ _____    ______ ____
ROOT
ATOM      1  C   UNL     1       0.618   3.025 -24.329  0.00  0.00    +0.011 C 
ATOM      2  C   UNL     1      -0.667   3.213 -24.284  0.00  0.00    -0.028 C 
ATOM      3  C   UNL     1      -1.879   3.265 -23.815  0.00  0.00    +0.005 C 
ATOM      4  C   UNL     1      -3.141   3.377 -23.523  0.00  0.00    +0.037 C 
ATOM      5  C   UNL     1      -4.041   3.770 -24.375  0.00  0.00    +0.067 C 
ATOM      6  C   UNL     1      -5.192   3.772 -23.770  0.00  0.00    +0.036 C 
ATOM      7  C   UNL     1      -5.003   3.380 -22.546  0.00  0.00    +0.017 C 
ATOM      8  C   UNL     1      -4.731   4.180 -25.398  0.00  0.00    +0.041 C 
ATOM      9  C   UNL     1      -3.735   3.136 -22.392  0.00  0.00    +0.032 C 
ATOM     10  C   UNL     1      -3.217   2.724 -21.274  0.00  0.00    +0.140 C 
ATOM     11  C   UNL     1      -1.972   2.451 -21.011  0.00  0.00    +0.075 C 
ATOM     12  C   UNL     1      -0.942   2.523 -21.800  0.00  0.00    +0.012 C 
ATOM     13  O   UNL     1      -4.050   2.564 -20.290  0.00  0.00    -0.297 OA
ATOM     14  C   UNL     1      -4.525   2.959 -21.374  0.00  0.00    +0.019 C 
ATOM     15  C   UNL     1      -0.881   3.607 -25.504  0.00  0.00    +0.011 C 
ATOM     16  C   UNL     1      -0.901   2.885 -23.048  0.00  0.00    -0.001 C 
ENDROOT
BRANCH   5  17
ATOM     17  O   UNL     1      -3.034   3.853 -25.193  0.00  0.00    -0.389 OA
ATOM     18  H   UNL     1      -2.298   3.319 -24.856  0.00  0.00    +0.210 HD
ENDBRANCH   5  17
TORSDOF 1
ENDMDL
MODEL 6
REMARK VINA RESULT:    -8.388      1.749      5.026
REMARK INTER + INTRA:          -8.633
REMARK INTER:                  -8.633
REMARK INTRA:                   0.000
REMARK UNBOUND:                 0.000
REMARK  Name = ZINC000004104718
REMARK  5 active torsions:
REMARK  status: ('A' for Active; 'I' for Inactive)
REMARK    1  A    between atoms: C_1  and  C_2
REMARK    2  A    between atoms: C_2  and  C_3
REMARK    3  A    between atoms: C_6  and  C_7
REMARK    4  A    between atoms: C_6  and  O_8
REMARK    5  A    between atoms: C_11  and  C_12
REMARK                            x       y       z     vdW  Elec       q    Type
REMARK                         _______ _______ _______ _____ _____    ______ ____
ROOT
ATOM      1  C   UNL     1      -4.295   3.369 -22.838  0.00  0.00    +0.011 C 
ATOM      2  C   UNL     1      -3.065   3.010 -22.619  0.00  0.00    -0.028 C 
ATOM      3  C   UNL     1      -1.797   2.803 -22.825  0.00  0.00    +0.005 C 
ATOM      4  C   UNL     1      -0.527   2.527 -22.848  0.00  0.00    +0.037 C 
ATOM      5  C   UNL     1       0.111   2.004 -21.844  0.00  0.00    +0.067 C 
ATOM      6  C   UNL     1       1.354   1.856 -22.192  0.00  0.00    +0.036 C 
ATOM      7  C   UNL     1       1.485   2.287 -23.411  0.00  0.00    +0.017 C 
ATOM      8  C   UNL     1       0.507   1.490 -20.717  0.00  0.00    +0.041 C 
ATOM      9  C   UNL     1       0.321   2.702 -23.817  0.00  0.00    +0.032 C 
ATOM     10  C   UNL     1       0.112   3.196 -25.001  0.00  0.00    +0.140 C 
ATOM     11  C   UNL     1      -1.001   3.638 -25.508  0.00  0.00    +0.075 C 
ATOM     12  C   UNL     1      -2.177   3.694 -24.958  0.00  0.00    +0.012 C 
ATOM     13  O   UNL     1       1.151   3.257 -25.780  0.00  0.00    -0.297 OA
ATOM     14  C   UNL     1       1.327   2.786 -24.638  0.00  0.00    +0.019 C 
ATOM     15  C   UNL     1      -3.170   2.573 -21.400  0.00  0.00    +0.011 C 
ATOM     16  C   UNL     1      -2.531   3.322 -23.763  0.00  0.00    -0.001 C 
ENDROOT
BRANCH   5  17
ATOM     17  O   UNL     1      -1.050   2.044 -21.260  0.00  0.00    -0.389 OA
ATOM     18  H   UNL     1      -1.720   2.348 -21.894  0.00  0.00    +0.210 HD
ENDBRANCH   5  17
TORSDOF 1
ENDMDL
MODEL 7
REMARK VINA RESULT:    -8.259      3.085      5.313
REMARK INTER + INTRA:          -8.501
REMARK INTER:                  -8.501
REMARK INTRA:                   0.000
REMARK UNBOUND:                 0.000
REMARK  Name = ZINC000004104718
REMARK  5 active torsions:
REMARK  status: ('A' for Active; 'I' for Inactive)
REMARK    1  A    between atoms: C_1  and  C_2
REMARK    2  A    between atoms: C_2  and  C_3
REMARK    3  A    between atoms: C_6  and  C_7
REMARK    4  A    between atoms: C_6  and  O_8
REMARK    5  A    between atoms: C_11  and  C_12
REMARK                            x       y       z     vdW  Elec       q    Type
REMARK                         _______ _______ _______ _____ _____    ______ ____
ROOT
ATOM      1  C   UNL     1      -2.738   2.340 -21.495  0.00  0.00    +0.011 C 
ATOM      2  C   UNL     1      -1.484   2.226 -21.815  0.00  0.00    -0.028 C 
ATOM      3  C   UNL     1      -0.302   2.540 -22.259  0.00  0.00    +0.005 C 
ATOM      4  C   UNL     1       0.929   2.672 -22.655  0.00  0.00    +0.037 C 
ATOM      5  C   UNL     1       1.810   1.718 -22.585  0.00  0.00    +0.067 C 
ATOM      6  C   UNL     1       2.932   2.174 -23.060  0.00  0.00    +0.036 C 
ATOM      7  C   UNL     1       2.744   3.407 -23.423  0.00  0.00    +0.017 C 
ATOM      8  C   UNL     1       2.487   0.623 -22.408  0.00  0.00    +0.041 C 
ATOM      9  C   UNL     1       1.505   3.716 -23.173  0.00  0.00    +0.032 C 
ATOM     10  C   UNL     1       0.996   4.885 -23.422  0.00  0.00    +0.140 C 
ATOM     11  C   UNL     1      -0.220   5.299 -23.215  0.00  0.00    +0.075 C 
ATOM     12  C   UNL     1      -1.223   4.646 -22.707  0.00  0.00    +0.012 C 
ATOM     13  O   UNL     1       1.806   5.754 -23.948  0.00  0.00    -0.297 OA
ATOM     14  C   UNL     1       2.273   4.624 -23.699  0.00  0.00    +0.019 C 
ATOM     15  C   UNL     1      -1.271   0.994 -21.460  0.00  0.00    +0.011 C 
ATOM     16  C   UNL     1      -1.259   3.418 -22.282  0.00  0.00    -0.001 C 
ENDROOT
BRANCH   5  17
ATOM     17  O   UNL     1       0.830   1.035 -22.074  0.00  0.00    -0.389 OA
ATOM     18  H   UNL     1       0.089   1.630 -21.876  0.00  0.00    +0.210 HD
ENDBRANCH   5  17
TORSDOF 1
ENDMDL
MODEL 8
REMARK VINA RESULT:    -8.076      2.106      3.269
REMARK INTER + INTRA:          -8.312
REMARK INTER:                  -8.312
REMARK INTRA:                   0.000
REMARK UNBOUND:                 0.000
REMARK  Name = ZINC000004104718
REMARK  5 active torsions:
REMARK  status: ('A' for Active; 'I' for Inactive)
REMARK    1  A    between atoms: C_1  and  C_2
REMARK    2  A    between atoms: C_2  and  C_3
REMARK    3  A    between atoms: C_6  and  C_7
REMARK    4  A    between atoms: C_6  and  O_8
REMARK    5  A    between atoms: C_11  and  C_12
REMARK                            x       y       z     vdW  Elec       q    Type
REMARK                         _______ _______ _______ _____ _____    ______ ____
ROOT
ATOM      1  C   UNL     1       2.886   1.197 -21.199  0.00  0.00    +0.011 C 
ATOM      2  C   UNL     1       2.208   1.762 -22.154  0.00  0.00    -0.028 C 
ATOM      3  C   UNL     1       1.194   2.221 -22.826  0.00  0.00    +0.005 C 
ATOM      4  C   UNL     1       0.311   2.733 -23.632  0.00  0.00    +0.037 C 
ATOM      5  C   UNL     1       0.614   3.280 -24.772  0.00  0.00    +0.067 C 
ATOM      6  C   UNL     1      -0.489   3.688 -25.325  0.00  0.00    +0.036 C 
ATOM      7  C   UNL     1      -1.472   3.394 -24.528  0.00  0.00    +0.017 C 
ATOM      8  C   UNL     1       1.171   3.763 -25.842  0.00  0.00    +0.041 C 
ATOM      9  C   UNL     1      -0.978   2.803 -23.481  0.00  0.00    +0.032 C 
ATOM     10  C   UNL     1      -1.704   2.379 -22.490  0.00  0.00    +0.140 C 
ATOM     11  C   UNL     1      -1.318   1.780 -21.402  0.00  0.00    +0.075 C 
ATOM     12  C   UNL     1      -0.113   1.457 -21.038  0.00  0.00    +0.012 C 
ATOM     13  O   UNL     1      -2.983   2.581 -22.599  0.00  0.00    -0.297 OA
ATOM     14  C   UNL     1      -2.265   2.979 -23.539  0.00  0.00    +0.019 C 
ATOM     15  C   UNL     1       3.175   2.067 -22.967  0.00  0.00    +0.011 C 
ATOM     16  C   UNL     1       1.005   1.653 -21.672  0.00  0.00    -0.001 C 
ENDROOT
BRANCH   5  17
ATOM     17  O   UNL     1       1.833   2.972 -24.441  0.00  0.00    -0.389 OA
ATOM     18  H   UNL     1       2.439   3.656 -24.769  0.00  0.00    +0.210 HD
ENDBRANCH   5  17
TORSDOF 1
ENDMDL
MODEL 9
REMARK VINA RESULT:    -7.764      2.158      4.966
REMARK INTER + INTRA:          -7.991
REMARK INTER:                  -7.991
REMARK INTRA:                   0.000
REMARK UNBOUND:                 0.000
REMARK  Name = ZINC000004104718
REMARK  5 active torsions:
REMARK  status: ('A' for Active; 'I' for Inactive)
REMARK    1  A    between atoms: C_1  and  C_2
REMARK    2  A    between atoms: C_2  and  C_3
REMARK    3  A    between atoms: C_6  and  C_7
REMARK    4  A    between atoms: C_6  and  O_8
REMARK    5  A    between atoms: C_11  and  C_12
REMARK                            x       y       z     vdW  Elec       q    Type
REMARK                         _______ _______ _______ _____ _____    ______ ____
ROOT
ATOM      1  C   UNL     1      -2.792   2.343 -21.393  0.00  0.00    +0.011 C 
ATOM      2  C   UNL     1      -1.875   2.570 -22.285  0.00  0.00    -0.028 C 
ATOM      3  C   UNL     1      -0.707   2.595 -22.858  0.00  0.00    +0.005 C 
ATOM      4  C   UNL     1       0.370   2.708 -23.578  0.00  0.00    +0.037 C 
ATOM      5  C   UNL     1       0.388   3.256 -24.757  0.00  0.00    +0.067 C 
ATOM      6  C   UNL     1       1.609   3.210 -25.200  0.00  0.00    +0.036 C 
ATOM      7  C   UNL     1       2.344   2.634 -24.297  0.00  0.00    +0.017 C 
ATOM      8  C   UNL     1       0.141   3.839 -25.892  0.00  0.00    +0.041 C 
ATOM      9  C   UNL     1       1.578   2.324 -23.293  0.00  0.00    +0.032 C 
ATOM     10  C   UNL     1       2.011   1.732 -22.220  0.00  0.00    +0.140 C 
ATOM     11  C   UNL     1       1.338   1.377 -21.164  0.00  0.00    +0.075 C 
ATOM     12  C   UNL     1       0.070   1.528 -20.922  0.00  0.00    +0.012 C 
ATOM     13  O   UNL     1       3.281   1.457 -22.199  0.00  0.00    -0.297 OA
ATOM     14  C   UNL     1       2.842   2.026 -23.219  0.00  0.00    +0.019 C 
ATOM     15  C   UNL     1      -2.589   3.148 -23.203  0.00  0.00    +0.011 C 
ATOM     16  C   UNL     1      -0.840   2.070 -21.676  0.00  0.00    -0.001 C 
ENDROOT
BRANCH   5  17
ATOM     17  O   UNL     1      -0.884   3.424 -24.549  0.00  0.00    -0.389 OA
ATOM     18  H   UNL     1      -1.312   2.558 -24.444  0.00  0.00    +0.210 HD
ENDBRANCH   5  17
TORSDOF 1
ENDMDL
