MODEL 1
REMARK VINA RESULT:    -8.528      0.000      0.000
REMARK INTER + INTRA:         -11.799
REMARK INTER:                 -10.942
REMARK INTRA:                  -0.858
REMARK UNBOUND:                -0.529
REMARK  Name = ZINC000000000056
REMARK  7 active torsions:
REMARK  status: ('A' for Active; 'I' for Inactive)
REMARK    1  A    between atoms: C_1  and  N_2
REMARK    2  A    between atoms: C_8  and  O_9
REMARK    3  A    between atoms: O_9  and  C_10
REMARK    4  A    between atoms: C_10  and  C_12
REMARK    5  A    between atoms: C_12  and  C_13
REMARK    6  A    between atoms: C_12  and  C_15
REMARK    7  A    between atoms: C_13  and  O_14
REMARK                            x       y       z     vdW  Elec       q    Type
REMARK                         _______ _______ _______ _____ _____    ______ ____
ROOT
ATOM      1  C   UNL     1      -0.896   4.310 -23.314  0.00  0.00    +0.317 C 
ATOM      2  O   UNL     1      -0.990   5.511 -23.580  0.00  0.00    -0.250 OA
ENDROOT
BRANCH   1   3
ATOM      3  O   UNL     1      -0.009   3.772 -22.456  0.00  0.00    -0.460 OA
BRANCH   3  11
ATOM      4  C   UNL     1       4.812   2.313 -21.134  0.00  0.00    +0.191 C 
ATOM      5  N   UNL     1       3.592   2.471 -21.925  0.00  0.00    +0.238 N 
ATOM      6  H   UNL     1       3.037   3.000 -21.253  0.00  0.00    +0.204 HD
ATOM      7  C   UNL     1       2.885   1.235 -22.263  0.00  0.00    +0.068 C 
ATOM      8  C   UNL     1       3.793   0.807 -23.454  0.00  0.00    +0.060 C 
ATOM      9  C   UNL     1       4.343   2.123 -24.037  0.00  0.00    +0.060 C 
ATOM     10  C   UNL     1       1.437   1.803 -22.049  0.00  0.00    +0.099 C 
ATOM     11  C   UNL     1       1.117   3.050 -22.941  0.00  0.00    +0.187 C 
ATOM     12  C   UNL     1       2.350   4.004 -23.031  0.00  0.00    +0.099 C 
ATOM     13  C   UNL     1       3.722   3.250 -23.157  0.00  0.00    +0.068 C 
ENDBRANCH   3  11
ENDBRANCH   1   3
BRANCH   1  14
ATOM     14  C   UNL     1      -1.820   3.255 -23.945  0.00  0.00    +0.153 C 
BRANCH  14  15
ATOM     15  C   UNL     1      -3.177   3.221 -23.242  0.00  0.00    -0.032 A 
ATOM     16  C   UNL     1      -3.310   2.692 -21.938  0.00  0.00    +0.004 A 
ATOM     17  C   UNL     1      -4.569   2.667 -21.305  0.00  0.00    +0.000 A 
ATOM     18  C   UNL     1      -5.701   3.170 -21.970  0.00  0.00    +0.000 A 
ATOM     19  C   UNL     1      -5.576   3.701 -23.269  0.00  0.00    +0.000 A 
ATOM     20  C   UNL     1      -4.318   3.727 -23.902  0.00  0.00    +0.004 A 
ENDBRANCH  14  15
BRANCH  14  21
ATOM     21  C   UNL     1      -1.950   3.422 -25.477  0.00  0.00    +0.175 C 
BRANCH  21  22
ATOM     22  O   UNL     1      -0.670   3.510 -26.085  0.00  0.00    -0.394 OA
ATOM     23  H   UNL     1      -0.772   3.544 -27.049  0.00  0.00    +0.209 HD
ENDBRANCH  21  22
ENDBRANCH  14  21
ENDBRANCH   1  14
TORSDOF 6
ENDMDL
MODEL 2
REMARK VINA RESULT:    -8.024      1.412      2.042
REMARK INTER + INTRA:         -11.133
REMARK INTER:                 -10.819
REMARK INTRA:                  -0.314
REMARK UNBOUND:                -0.529
REMARK  Name = ZINC000000000056
REMARK  7 active torsions:
REMARK  status: ('A' for Active; 'I' for Inactive)
REMARK    1  A    between atoms: C_1  and  N_2
REMARK    2  A    between atoms: C_8  and  O_9
REMARK    3  A    between atoms: O_9  and  C_10
REMARK    4  A    between atoms: C_10  and  C_12
REMARK    5  A    between atoms: C_12  and  C_13
REMARK    6  A    between atoms: C_12  and  C_15
REMARK    7  A    between atoms: C_13  and  O_14
REMARK                            x       y       z     vdW  Elec       q    Type
REMARK                         _______ _______ _______ _____ _____    ______ ____
ROOT
ATOM      1  C   UNL     1      -1.377   4.130 -24.585  0.00  0.00    +0.317 C 
ATOM      2  O   UNL     1      -1.305   5.149 -23.893  0.00  0.00    -0.250 OA
ENDROOT
BRANCH   1   3
ATOM      3  O   UNL     1      -0.362   3.598 -25.293  0.00  0.00    -0.460 OA
BRANCH   3  11
ATOM      4  C   UNL     1       2.840   0.390 -22.731  0.00  0.00    +0.191 C 
ATOM      5  N   UNL     1       2.346   1.593 -23.400  0.00  0.00    +0.238 N 
ATOM      6  H   UNL     1       1.423   1.254 -23.670  0.00  0.00    +0.204 HD
ATOM      7  C   UNL     1       3.075   2.004 -24.600  0.00  0.00    +0.068 C 
ATOM      8  C   UNL     1       4.267   2.701 -23.877  0.00  0.00    +0.060 C 
ATOM      9  C   UNL     1       3.690   3.205 -22.540  0.00  0.00    +0.060 C 
ATOM     10  C   UNL     1       1.813   2.424 -25.432  0.00  0.00    +0.099 C 
ATOM     11  C   UNL     1       0.945   3.527 -24.739  0.00  0.00    +0.187 C 
ATOM     12  C   UNL     1       0.847   3.275 -23.200  0.00  0.00    +0.099 C 
ATOM     13  C   UNL     1       2.190   2.779 -22.556  0.00  0.00    +0.068 C 
ENDBRANCH   3  11
ENDBRANCH   1   3
BRANCH   1  14
ATOM     14  C   UNL     1      -2.675   3.317 -24.714  0.00  0.00    +0.153 C 
BRANCH  14  15
ATOM     15  C   UNL     1      -3.312   3.075 -23.345  0.00  0.00    -0.032 A 
ATOM     16  C   UNL     1      -2.562   2.530 -22.278  0.00  0.00    +0.004 A 
ATOM     17  C   UNL     1      -3.165   2.312 -21.023  0.00  0.00    +0.000 A 
ATOM     18  C   UNL     1      -4.519   2.639 -20.826  0.00  0.00    +0.000 A 
ATOM     19  C   UNL     1      -5.272   3.185 -21.885  0.00  0.00    +0.000 A 
ATOM     20  C   UNL     1      -4.670   3.403 -23.139  0.00  0.00    +0.004 A 
ENDBRANCH  14  15
BRANCH  14  21
ATOM     21  C   UNL     1      -3.666   3.937 -25.727  0.00  0.00    +0.175 C 
BRANCH  21  22
ATOM     22  O   UNL     1      -3.859   5.318 -25.460  0.00  0.00    -0.394 OA
ATOM     23  H   UNL     1      -3.902   5.460 -24.501  0.00  0.00    +0.209 HD
ENDBRANCH  21  22
ENDBRANCH  14  21
ENDBRANCH   1  14
TORSDOF 6
ENDMDL
MODEL 3
REMARK VINA RESULT:    -7.887      1.782      2.930
REMARK INTER + INTRA:         -10.952
REMARK INTER:                 -10.009
REMARK INTRA:                  -0.943
REMARK UNBOUND:                -0.529
REMARK  Name = ZINC000000000056
REMARK  7 active torsions:
REMARK  status: ('A' for Active; 'I' for Inactive)
REMARK    1  A    between atoms: C_1  and  N_2
REMARK    2  A    between atoms: C_8  and  O_9
REMARK    3  A    between atoms: O_9  and  C_10
REMARK    4  A    between atoms: C_10  and  C_12
REMARK    5  A    between atoms: C_12  and  C_13
REMARK    6  A    between atoms: C_12  and  C_15
REMARK    7  A    between atoms: C_13  and  O_14
REMARK                            x       y       z     vdW  Elec       q    Type
REMARK                         _______ _______ _______ _____ _____    ______ ____
ROOT
ATOM      1  C   UNL     1      -1.828   2.461 -21.513  0.00  0.00    +0.317 C 
ATOM      2  O   UNL     1      -2.395   1.375 -21.376  0.00  0.00    -0.250 OA
ENDROOT
BRANCH   1   3
ATOM      3  O   UNL     1      -0.506   2.672 -21.367  0.00  0.00    -0.460 OA
BRANCH   3  11
ATOM      4  C   UNL     1       4.432   3.157 -22.944  0.00  0.00    +0.191 C 
ATOM      5  N   UNL     1       3.046   2.696 -22.892  0.00  0.00    +0.238 N 
ATOM      6  H   UNL     1       2.734   3.232 -22.082  0.00  0.00    +0.204 HD
ATOM      7  C   UNL     1       2.855   1.270 -22.625  0.00  0.00    +0.068 C 
ATOM      8  C   UNL     1       3.138   0.760 -24.070  0.00  0.00    +0.060 C 
ATOM      9  C   UNL     1       2.720   1.917 -24.997  0.00  0.00    +0.060 C 
ATOM     10  C   UNL     1       1.620   1.439 -21.671  0.00  0.00    +0.099 C 
ATOM     11  C   UNL     1       0.414   2.185 -22.336  0.00  0.00    +0.187 C 
ATOM     12  C   UNL     1       0.912   3.370 -23.224  0.00  0.00    +0.099 C 
ATOM     13  C   UNL     1       2.211   3.040 -24.043  0.00  0.00    +0.068 C 
ENDBRANCH   3  11
ENDBRANCH   1   3
BRANCH   1  14
ATOM     14  C   UNL     1      -2.589   3.743 -21.891  0.00  0.00    +0.153 C 
BRANCH  14  15
ATOM     15  C   UNL     1      -3.203   3.627 -23.287  0.00  0.00    -0.032 A 
ATOM     16  C   UNL     1      -2.402   3.328 -24.413  0.00  0.00    +0.004 A 
ATOM     17  C   UNL     1      -2.984   3.227 -25.693  0.00  0.00    +0.000 A 
ATOM     18  C   UNL     1      -4.368   3.421 -25.854  0.00  0.00    +0.000 A 
ATOM     19  C   UNL     1      -5.172   3.716 -24.736  0.00  0.00    +0.000 A 
ATOM     20  C   UNL     1      -4.592   3.818 -23.457  0.00  0.00    +0.004 A 
ENDBRANCH  14  15
BRANCH  14  21
ATOM     21  C   UNL     1      -3.626   4.153 -20.820  0.00  0.00    +0.175 C 
BRANCH  21  22
ATOM     22  O   UNL     1      -3.164   3.824 -19.519  0.00  0.00    -0.394 OA
ATOM     23  H   UNL     1      -2.855   2.905 -19.508  0.00  0.00    +0.209 HD
ENDBRANCH  21  22
ENDBRANCH  14  21
ENDBRANCH   1  14
TORSDOF 6
ENDMDL
MODEL 4
REMARK VINA RESULT:    -7.823      2.498      6.794
REMARK INTER + INTRA:         -10.867
REMARK INTER:                 -10.075
REMARK INTRA:                  -0.792
REMARK UNBOUND:                -0.529
REMARK  Name = ZINC000000000056
REMARK  7 active torsions:
REMARK  status: ('A' for Active; 'I' for Inactive)
REMARK    1  A    between atoms: C_1  and  N_2
REMARK    2  A    between atoms: C_8  and  O_9
REMARK    3  A    between atoms: O_9  and  C_10
REMARK    4  A    between atoms: C_10  and  C_12
REMARK    5  A    between atoms: C_12  and  C_13
REMARK    6  A    between atoms: C_12  and  C_15
REMARK    7  A    between atoms: C_13  and  O_14
REMARK                            x       y       z     vdW  Elec       q    Type
REMARK                         _______ _______ _______ _____ _____    ______ ____
ROOT
ATOM      1  C   UNL     1       1.916   1.587 -22.552  0.00  0.00    +0.317 C 
ATOM      2  O   UNL     1       2.448   1.289 -21.480  0.00  0.00    -0.250 OA
ENDROOT
BRANCH   1   3
ATOM      3  O   UNL     1       0.598   1.498 -22.817  0.00  0.00    -0.460 OA
BRANCH   3  11
ATOM      4  C   UNL     1      -4.240   3.407 -23.046  0.00  0.00    +0.191 C 
ATOM      5  N   UNL     1      -2.903   3.111 -22.535  0.00  0.00    +0.238 N 
ATOM      6  H   UNL     1      -2.561   2.545 -23.311  0.00  0.00    +0.204 HD
ATOM      7  C   UNL     1      -2.848   2.320 -21.305  0.00  0.00    +0.068 C 
ATOM      8  C   UNL     1      -3.146   3.481 -20.310  0.00  0.00    +0.060 C 
ATOM      9  C   UNL     1      -2.604   4.750 -20.996  0.00  0.00    +0.060 C 
ATOM     10  C   UNL     1      -1.623   1.433 -21.726  0.00  0.00    +0.099 C 
ATOM     11  C   UNL     1      -0.341   2.262 -22.073  0.00  0.00    +0.187 C 
ATOM     12  C   UNL     1      -0.710   3.555 -22.869  0.00  0.00    +0.099 C 
ATOM     13  C   UNL     1      -2.016   4.260 -22.354  0.00  0.00    +0.068 C 
ENDBRANCH   3  11
ENDBRANCH   1   3
BRANCH   1  14
ATOM     14  C   UNL     1       2.721   2.124 -23.747  0.00  0.00    +0.153 C 
BRANCH  14  15
ATOM     15  C   UNL     1       3.474   3.401 -23.374  0.00  0.00    -0.032 A 
ATOM     16  C   UNL     1       4.881   3.405 -23.233  0.00  0.00    +0.004 A 
ATOM     17  C   UNL     1       5.558   4.591 -22.886  0.00  0.00    +0.000 A 
ATOM     18  C   UNL     1       4.835   5.780 -22.680  0.00  0.00    +0.000 A 
ATOM     19  C   UNL     1       3.433   5.784 -22.821  0.00  0.00    +0.000 A 
ATOM     20  C   UNL     1       2.756   4.600 -23.168  0.00  0.00    +0.004 A 
ENDBRANCH  14  15
BRANCH  14  21
ATOM     21  C   UNL     1       3.646   1.051 -24.368  0.00  0.00    +0.175 C 
BRANCH  21  22
ATOM     22  O   UNL     1       2.932   0.243 -25.291  0.00  0.00    -0.394 OA
ATOM     23  H   UNL     1       3.560  -0.257 -25.837  0.00  0.00    +0.209 HD
ENDBRANCH  21  22
ENDBRANCH  14  21
ENDBRANCH   1  14
TORSDOF 6
ENDMDL
MODEL 5
REMARK VINA RESULT:    -7.798      1.654      2.566
REMARK INTER + INTRA:         -10.835
REMARK INTER:                 -10.246
REMARK INTRA:                  -0.589
REMARK UNBOUND:                -0.529
REMARK  Name = ZINC000000000056
REMARK  7 active torsions:
REMARK  status: ('A' for Active; 'I' for Inactive)
REMARK    1  A    between atoms: C_1  and  N_2
REMARK    2  A    between atoms: C_8  and  O_9
REMARK    3  A    between atoms: O_9  and  C_10
REMARK    4  A    between atoms: C_10  and  C_12
REMARK    5  A    between atoms: C_12  and  C_13
REMARK    6  A    between atoms: C_12  and  C_15
REMARK    7  A    between atoms: C_13  and  O_14
REMARK                            x       y       z     vdW  Elec       q    Type
REMARK                         _______ _______ _______ _____ _____    ______ ____
ROOT
ATOM      1  C   UNL     1      -0.656   2.497 -23.098  0.00  0.00    +0.317 C 
ATOM      2  O   UNL     1      -1.313   2.138 -22.118  0.00  0.00    -0.250 OA
ENDROOT
BRANCH   1   3
ATOM      3  O   UNL     1       0.398   1.835 -23.612  0.00  0.00    -0.460 OA
BRANCH   3  11
ATOM      4  C   UNL     1       5.237   0.689 -22.072  0.00  0.00    +0.191 C 
ATOM      5  N   UNL     1       4.111   1.448 -22.613  0.00  0.00    +0.238 N 
ATOM      6  H   UNL     1       3.388   0.734 -22.534  0.00  0.00    +0.204 HD
ATOM      7  C   UNL     1       4.229   1.857 -24.013  0.00  0.00    +0.068 C 
ATOM      8  C   UNL     1       5.156   3.088 -23.782  0.00  0.00    +0.060 C 
ATOM      9  C   UNL     1       4.815   3.590 -22.365  0.00  0.00    +0.060 C 
ATOM     10  C   UNL     1       2.732   1.583 -24.397  0.00  0.00    +0.099 C 
ATOM     11  C   UNL     1       1.706   2.384 -23.527  0.00  0.00    +0.187 C 
ATOM     12  C   UNL     1       2.158   2.429 -22.032  0.00  0.00    +0.099 C 
ATOM     13  C   UNL     1       3.704   2.627 -21.847  0.00  0.00    +0.068 C 
ENDBRANCH   3  11
ENDBRANCH   1   3
BRANCH   1  14
ATOM     14  C   UNL     1      -0.983   3.780 -23.880  0.00  0.00    +0.153 C 
BRANCH  14  15
ATOM     15  C   UNL     1      -2.373   3.701 -24.512  0.00  0.00    -0.032 A 
ATOM     16  C   UNL     1      -3.534   3.992 -23.759  0.00  0.00    +0.004 A 
ATOM     17  C   UNL     1      -4.808   3.911 -24.357  0.00  0.00    +0.000 A 
ATOM     18  C   UNL     1      -4.929   3.541 -25.709  0.00  0.00    +0.000 A 
ATOM     19  C   UNL     1      -3.776   3.252 -26.465  0.00  0.00    +0.000 A 
ATOM     20  C   UNL     1      -2.503   3.333 -25.869  0.00  0.00    +0.004 A 
ENDBRANCH  14  15
BRANCH  14  21
ATOM     21  C   UNL     1      -0.792   5.057 -23.029  0.00  0.00    +0.175 C 
BRANCH  21  22
ATOM     22  O   UNL     1       0.481   5.639 -23.272  0.00  0.00    -0.394 OA
ATOM     23  H   UNL     1       0.561   6.465 -22.770  0.00  0.00    +0.209 HD
ENDBRANCH  21  22
ENDBRANCH  14  21
ENDBRANCH   1  14
TORSDOF 6
ENDMDL
MODEL 6
REMARK VINA RESULT:    -7.673      2.128      6.600
REMARK INTER + INTRA:         -10.669
REMARK INTER:                  -9.778
REMARK INTRA:                  -0.891
REMARK UNBOUND:                -0.529
REMARK  Name = ZINC000000000056
REMARK  7 active torsions:
REMARK  status: ('A' for Active; 'I' for Inactive)
REMARK    1  A    between atoms: C_1  and  N_2
REMARK    2  A    between atoms: C_8  and  O_9
REMARK    3  A    between atoms: O_9  and  C_10
REMARK    4  A    between atoms: C_10  and  C_12
REMARK    5  A    between atoms: C_12  and  C_13
REMARK    6  A    between atoms: C_12  and  C_15
REMARK    7  A    between atoms: C_13  and  O_14
REMARK                            x       y       z     vdW  Elec       q    Type
REMARK                         _______ _______ _______ _____ _____    ______ ____
ROOT
ATOM      1  C   UNL     1       1.614   4.401 -24.032  0.00  0.00    +0.317 C 
ATOM      2  O   UNL     1       1.972   5.498 -23.595  0.00  0.00    -0.250 OA
ENDROOT
BRANCH   1   3
ATOM      3  O   UNL     1       0.338   4.028 -24.246  0.00  0.00    -0.460 OA
BRANCH   3  11
ATOM      4  C   UNL     1      -4.667   3.610 -22.876  0.00  0.00    +0.191 C 
ATOM      5  N   UNL     1      -3.209   3.568 -22.781  0.00  0.00    +0.238 N 
ATOM      6  H   UNL     1      -2.982   3.862 -23.731  0.00  0.00    +0.204 HD
ATOM      7  C   UNL     1      -2.621   2.251 -22.535  0.00  0.00    +0.068 C 
ATOM      8  C   UNL     1      -2.882   2.203 -20.999  0.00  0.00    +0.060 C 
ATOM      9  C   UNL     1      -2.871   3.674 -20.541  0.00  0.00    +0.060 C 
ATOM     10  C   UNL     1      -1.397   2.427 -23.502  0.00  0.00    +0.099 C 
ATOM     11  C   UNL     1      -0.499   3.662 -23.157  0.00  0.00    +0.187 C 
ATOM     12  C   UNL     1      -1.371   4.886 -22.733  0.00  0.00    +0.099 C 
ATOM     13  C   UNL     1      -2.600   4.503 -21.834  0.00  0.00    +0.068 C 
ENDBRANCH   3  11
ENDBRANCH   1   3
BRANCH   1  14
ATOM     14  C   UNL     1       2.620   3.300 -24.405  0.00  0.00    +0.153 C 
BRANCH  14  15
ATOM     15  C   UNL     1       3.495   2.924 -23.208  0.00  0.00    -0.032 A 
ATOM     16  C   UNL     1       2.967   2.191 -22.121  0.00  0.00    +0.004 A 
ATOM     17  C   UNL     1       3.786   1.856 -21.025  0.00  0.00    +0.000 A 
ATOM     18  C   UNL     1       5.137   2.248 -21.009  0.00  0.00    +0.000 A 
ATOM     19  C   UNL     1       5.670   2.977 -22.090  0.00  0.00    +0.000 A 
ATOM     20  C   UNL     1       4.852   3.313 -23.186  0.00  0.00    +0.004 A 
ENDBRANCH  14  15
BRANCH  14  21
ATOM     21  C   UNL     1       1.940   2.070 -25.051  0.00  0.00    +0.175 C 
BRANCH  21  22
ATOM     22  O   UNL     1       1.562   2.350 -26.391  0.00  0.00    -0.394 OA
ATOM     23  H   UNL     1       1.040   1.610 -26.740  0.00  0.00    +0.209 HD
ENDBRANCH  21  22
ENDBRANCH  14  21
ENDBRANCH   1  14
TORSDOF 6
ENDMDL
MODEL 7
REMARK VINA RESULT:    -7.661      2.214      6.742
REMARK INTER + INTRA:         -10.654
REMARK INTER:                  -9.779
REMARK INTRA:                  -0.875
REMARK UNBOUND:                -0.529
REMARK  Name = ZINC000000000056
REMARK  7 active torsions:
REMARK  status: ('A' for Active; 'I' for Inactive)
REMARK    1  A    between atoms: C_1  and  N_2
REMARK    2  A    between atoms: C_8  and  O_9
REMARK    3  A    between atoms: O_9  and  C_10
REMARK    4  A    between atoms: C_10  and  C_12
REMARK    5  A    between atoms: C_12  and  C_13
REMARK    6  A    between atoms: C_12  and  C_15
REMARK    7  A    between atoms: C_13  and  O_14
REMARK                            x       y       z     vdW  Elec       q    Type
REMARK                         _______ _______ _______ _____ _____    ______ ____
ROOT
ATOM      1  C   UNL     1       1.402   2.741 -24.220  0.00  0.00    +0.317 C 
ATOM      2  O   UNL     1       1.882   2.746 -25.356  0.00  0.00    -0.250 OA
ENDROOT
BRANCH   1   3
ATOM      3  O   UNL     1       0.222   2.189 -23.877  0.00  0.00    -0.460 OA
BRANCH   3  11
ATOM      4  C   UNL     1      -4.716   3.048 -22.468  0.00  0.00    +0.191 C 
ATOM      5  N   UNL     1      -3.255   3.045 -22.422  0.00  0.00    +0.238 N 
ATOM      6  H   UNL     1      -3.071   2.549 -23.294  0.00  0.00    +0.204 HD
ATOM      7  C   UNL     1      -2.651   2.304 -21.314  0.00  0.00    +0.068 C 
ATOM      8  C   UNL     1      -2.843   3.396 -20.219  0.00  0.00    +0.060 C 
ATOM      9  C   UNL     1      -2.818   4.737 -20.976  0.00  0.00    +0.060 C 
ATOM     10  C   UNL     1      -1.473   1.684 -22.145  0.00  0.00    +0.099 C 
ATOM     11  C   UNL     1      -0.564   2.755 -22.837  0.00  0.00    +0.187 C 
ATOM     12  C   UNL     1      -1.422   3.929 -23.409  0.00  0.00    +0.099 C 
ATOM     13  C   UNL     1      -2.608   4.357 -22.474  0.00  0.00    +0.068 C 
ENDBRANCH   3  11
ENDBRANCH   1   3
BRANCH   1  14
ATOM     14  C   UNL     1       2.125   3.377 -23.021  0.00  0.00    +0.153 C 
BRANCH  14  15
ATOM     15  C   UNL     1       3.149   2.412 -22.422  0.00  0.00    -0.032 A 
ATOM     16  C   UNL     1       4.518   2.496 -22.766  0.00  0.00    +0.004 A 
ATOM     17  C   UNL     1       5.448   1.598 -22.207  0.00  0.00    +0.000 A 
ATOM     18  C   UNL     1       5.018   0.612 -21.299  0.00  0.00    +0.000 A 
ATOM     19  C   UNL     1       3.656   0.525 -20.950  0.00  0.00    +0.000 A 
ATOM     20  C   UNL     1       2.726   1.422 -21.509  0.00  0.00    +0.004 A 
ENDBRANCH  14  15
BRANCH  14  21
ATOM     21  C   UNL     1       2.737   4.755 -23.360  0.00  0.00    +0.175 C 
BRANCH  21  22
ATOM     22  O   UNL     1       1.769   5.785 -23.219  0.00  0.00    -0.394 OA
ATOM     23  H   UNL     1       2.198   6.649 -23.323  0.00  0.00    +0.209 HD
ENDBRANCH  21  22
ENDBRANCH  14  21
ENDBRANCH   1  14
TORSDOF 6
ENDMDL
MODEL 8
REMARK VINA RESULT:    -7.630      1.478      2.294
REMARK INTER + INTRA:         -10.612
REMARK INTER:                 -10.336
REMARK INTRA:                  -0.276
REMARK UNBOUND:                -0.529
REMARK  Name = ZINC000000000056
REMARK  7 active torsions:
REMARK  status: ('A' for Active; 'I' for Inactive)
REMARK    1  A    between atoms: C_1  and  N_2
REMARK    2  A    between atoms: C_8  and  O_9
REMARK    3  A    between atoms: O_9  and  C_10
REMARK    4  A    between atoms: C_10  and  C_12
REMARK    5  A    between atoms: C_12  and  C_13
REMARK    6  A    between atoms: C_12  and  C_15
REMARK    7  A    between atoms: C_13  and  O_14
REMARK                            x       y       z     vdW  Elec       q    Type
REMARK                         _______ _______ _______ _____ _____    ______ ____
ROOT
ATOM      1  C   UNL     1      -0.843   2.482 -22.419  0.00  0.00    +0.317 C 
ATOM      2  O   UNL     1      -1.116   2.342 -21.225  0.00  0.00    -0.250 OA
ENDROOT
BRANCH   1   3
ATOM      3  O   UNL     1      -0.144   1.604 -23.164  0.00  0.00    -0.460 OA
BRANCH   3  11
ATOM      4  C   UNL     1       3.866   4.922 -23.042  0.00  0.00    +0.191 C 
ATOM      5  N   UNL     1       3.127   3.662 -23.108  0.00  0.00    +0.238 N 
ATOM      6  H   UNL     1       2.179   4.034 -23.041  0.00  0.00    +0.204 HD
ATOM      7  C   UNL     1       3.353   2.728 -22.004  0.00  0.00    +0.068 C 
ATOM      8  C   UNL     1       4.706   2.146 -22.514  0.00  0.00    +0.060 C 
ATOM      9  C   UNL     1       4.645   2.264 -24.049  0.00  0.00    +0.060 C 
ATOM     10  C   UNL     1       1.861   2.259 -21.869  0.00  0.00    +0.099 C 
ATOM     11  C   UNL     1       1.277   1.645 -23.186  0.00  0.00    +0.187 C 
ATOM     12  C   UNL     1       1.757   2.448 -24.437  0.00  0.00    +0.099 C 
ATOM     13  C   UNL     1       3.257   2.906 -24.354  0.00  0.00    +0.068 C 
ENDBRANCH   3  11
ENDBRANCH   1   3
BRANCH   1  14
ATOM     14  C   UNL     1      -1.293   3.711 -23.226  0.00  0.00    +0.153 C 
BRANCH  14  15
ATOM     15  C   UNL     1      -2.814   3.742 -23.380  0.00  0.00    -0.032 A 
ATOM     16  C   UNL     1      -3.416   4.092 -24.610  0.00  0.00    +0.004 A 
ATOM     17  C   UNL     1      -4.820   4.117 -24.733  0.00  0.00    +0.000 A 
ATOM     18  C   UNL     1      -5.629   3.791 -23.629  0.00  0.00    +0.000 A 
ATOM     19  C   UNL     1      -5.036   3.438 -22.402  0.00  0.00    +0.000 A 
ATOM     20  C   UNL     1      -3.633   3.413 -22.278  0.00  0.00    +0.004 A 
ENDBRANCH  14  15
BRANCH  14  21
ATOM     21  C   UNL     1      -0.728   5.033 -22.657  0.00  0.00    +0.175 C 
BRANCH  21  22
ATOM     22  O   UNL     1       0.388   5.473 -23.417  0.00  0.00    -0.394 OA
ATOM     23  H   UNL     1       1.113   4.836 -23.325  0.00  0.00    +0.209 HD
ENDBRANCH  21  22
ENDBRANCH  14  21
ENDBRANCH   1  14
TORSDOF 6
ENDMDL
MODEL 9
REMARK VINA RESULT:    -7.577      2.720      7.368
REMARK INTER + INTRA:         -10.542
REMARK INTER:                 -10.013
REMARK INTRA:                  -0.529
REMARK UNBOUND:                -0.529
REMARK  Name = ZINC000000000056
REMARK  7 active torsions:
REMARK  status: ('A' for Active; 'I' for Inactive)
REMARK    1  A    between atoms: C_1  and  N_2
REMARK    2  A    between atoms: C_8  and  O_9
REMARK    3  A    between atoms: O_9  and  C_10
REMARK    4  A    between atoms: C_10  and  C_12
REMARK    5  A    between atoms: C_12  and  C_13
REMARK    6  A    between atoms: C_12  and  C_15
REMARK    7  A    between atoms: C_13  and  O_14
REMARK                            x       y       z     vdW  Elec       q    Type
REMARK                         _______ _______ _______ _____ _____    ______ ____
ROOT
ATOM      1  C   UNL     1       2.737   1.125 -21.589  0.00  0.00    +0.317 C 
ATOM      2  O   UNL     1       2.484   1.244 -20.388  0.00  0.00    -0.250 OA
ENDROOT
BRANCH   1   3
ATOM      3  O   UNL     1       1.827   1.152 -22.581  0.00  0.00    -0.460 OA
BRANCH   3  11
ATOM      4  C   UNL     1      -2.655   2.420 -24.908  0.00  0.00    +0.191 C 
ATOM      5  N   UNL     1      -1.484   2.514 -24.038  0.00  0.00    +0.238 N 
ATOM      6  H   UNL     1      -1.049   1.620 -24.264  0.00  0.00    +0.204 HD
ATOM      7  C   UNL     1      -1.758   2.563 -22.601  0.00  0.00    +0.068 C 
ATOM      8  C   UNL     1      -2.136   4.072 -22.523  0.00  0.00    +0.060 C 
ATOM      9  C   UNL     1      -1.345   4.746 -23.661  0.00  0.00    +0.060 C 
ATOM     10  C   UNL     1      -0.565   1.638 -22.168  0.00  0.00    +0.099 C 
ATOM     11  C   UNL     1       0.835   2.170 -22.624  0.00  0.00    +0.187 C 
ATOM     12  C   UNL     1       0.763   2.769 -24.066  0.00  0.00    +0.099 C 
ATOM     13  C   UNL     1      -0.544   3.594 -24.340  0.00  0.00    +0.068 C 
ENDBRANCH   3  11
ENDBRANCH   1   3
BRANCH   1  14
ATOM     14  C   UNL     1       4.172   0.939 -22.111  0.00  0.00    +0.153 C 
BRANCH  14  15
ATOM     15  C   UNL     1       4.805   2.283 -22.472  0.00  0.00    -0.032 A 
ATOM     16  C   UNL     1       4.006   3.426 -22.708  0.00  0.00    +0.004 A 
ATOM     17  C   UNL     1       4.606   4.656 -23.042  0.00  0.00    +0.000 A 
ATOM     18  C   UNL     1       6.006   4.753 -23.141  0.00  0.00    +0.000 A 
ATOM     19  C   UNL     1       6.808   3.619 -22.906  0.00  0.00    +0.000 A 
ATOM     20  C   UNL     1       6.209   2.389 -22.572  0.00  0.00    +0.004 A 
ENDBRANCH  14  15
BRANCH  14  21
ATOM     21  C   UNL     1       5.050   0.110 -21.145  0.00  0.00    +0.175 C 
BRANCH  21  22
ATOM     22  O   UNL     1       5.267   0.815 -19.932  0.00  0.00    -0.394 OA
ATOM     23  H   UNL     1       5.388   0.182 -19.207  0.00  0.00    +0.209 HD
ENDBRANCH  21  22
ENDBRANCH  14  21
ENDBRANCH   1  14
TORSDOF 6
ENDMDL
