MODEL 1
REMARK VINA RESULT:    -9.259      0.000      0.000
REMARK INTER + INTRA:         -14.347
REMARK INTER:                 -13.841
REMARK INTRA:                  -0.506
REMARK UNBOUND:                -0.758
REMARK  Name = ZINC000000689945
REMARK  11 active torsions:
REMARK  status: ('A' for Active; 'I' for Inactive)
REMARK    1  A    between atoms: C_1  and  O_2
REMARK    2  A    between atoms: O_2  and  C_3
REMARK    3  A    between atoms: C_8  and  O_9
REMARK    4  A    between atoms: O_9  and  C_10
REMARK    5  A    between atoms: C_11  and  C_12
REMARK    6  A    between atoms: C_12  and  C_13
REMARK    7  A    between atoms: C_16  and  O_17
REMARK    8  A    between atoms: O_17  and  C_18
REMARK    9  A    between atoms: C_18  and  C_19
REMARK   10  A    between atoms: C_25  and  O_26
REMARK   11  A    between atoms: O_26  and  C_27
REMARK                            x       y       z     vdW  Elec       q    Type
REMARK                         _______ _______ _______ _____ _____    ______ ____
ROOT
ATOM      1  C   UNL     1       1.869   3.388 -24.244  0.00  0.00    -0.038 A 
ATOM      2  C   UNL     1       1.114   4.038 -25.079  0.00  0.00    +0.008 A 
ATOM      3  C   UNL     1      -0.171   3.841 -25.084  0.00  0.00    +0.050 A 
ATOM      4  C   UNL     1      -0.701   2.993 -24.253  0.00  0.00    +0.162 A 
ATOM      5  C   UNL     1       0.054   2.343 -23.417  0.00  0.00    +0.162 A 
ATOM      6  C   UNL     1       1.338   2.540 -23.413  0.00  0.00    +0.053 A 
ENDROOT
BRANCH   5   7
ATOM      7  O   UNL     1      -0.476   1.495 -22.586  0.00  0.00    -0.491 OA
ATOM      8  C   UNL     1      -0.070   1.454 -21.352  0.00  0.00    +0.277 C 
ENDBRANCH   5   7
BRANCH   1   9
ATOM      9  C   UNL     1       3.153   3.585 -24.239  0.00  0.00    +0.090 C 
BRANCH   9  14
ATOM     10  C   UNL     1       6.702   4.665 -21.372  0.00  0.00    +0.162 A 
ATOM     11  C   UNL     1       6.534   3.380 -21.271  0.00  0.00    +0.053 A 
ATOM     12  C   UNL     1       5.605   2.789 -21.963  0.00  0.00    -0.033 A 
ATOM     13  C   UNL     1       4.844   3.483 -22.755  0.00  0.00    +0.003 A 
ATOM     14  C   UNL     1       3.915   2.891 -23.447  0.00  0.00    +0.048 C 
ATOM     15  N   UNL     1       3.748   1.606 -23.346  0.00  0.00    -0.287 NA
ATOM     16  C   UNL     1       4.510   0.912 -22.553  0.00  0.00    +0.146 C 
ATOM     17  C   UNL     1       5.010   4.768 -22.856  0.00  0.00    +0.059 A 
ATOM     18  C   UNL     1       5.439   1.504 -21.862  0.00  0.00    +0.059 C 
ATOM     19  C   UNL     1       5.939   5.359 -22.165  0.00  0.00    +0.162 A 
BRANCH  10  21
ATOM     20  C   UNL     1       8.858   5.254 -21.106  0.00  0.00    +0.277 C 
ATOM     21  O   UNL     1       7.630   5.256 -20.680  0.00  0.00    -0.491 OA
ENDBRANCH  10  21
BRANCH  19  22
ATOM     22  O   UNL     1       6.107   6.644 -22.265  0.00  0.00    -0.491 OA
ATOM     23  C   UNL     1       5.229   7.457 -21.757  0.00  0.00    +0.277 C 
ENDBRANCH  19  22
ENDBRANCH   9  14
ENDBRANCH   1   9
BRANCH   4  24
ATOM     24  O   UNL     1      -1.986   2.796 -24.257  0.00  0.00    -0.484 OA
BRANCH  24  25
ATOM     25  C   UNL     1      -2.785   3.709 -23.791  0.00  0.00    +0.264 C 
BRANCH  25  26
ATOM     26  C   UNL     1      -3.753   3.378 -22.987  0.00  0.00    -0.010 A 
ATOM     27  C   UNL     1      -3.488   2.776 -21.865  0.00  0.00    +0.007 A 
ATOM     28  C   UNL     1      -4.455   2.445 -21.061  0.00  0.00    +0.000 A 
ATOM     29  C   UNL     1      -5.686   2.715 -21.380  0.00  0.00    +0.000 A 
ATOM     30  C   UNL     1      -5.951   3.316 -22.501  0.00  0.00    +0.000 A 
ATOM     31  C   UNL     1      -4.984   3.648 -23.305  0.00  0.00    +0.007 A 
ENDBRANCH  25  26
ENDBRANCH  24  25
ENDBRANCH   4  24
TORSDOF 8
ENDMDL
MODEL 2
REMARK VINA RESULT:    -9.152      1.763      8.972
REMARK INTER + INTRA:         -14.190
REMARK INTER:                 -13.108
REMARK INTRA:                  -1.082
REMARK UNBOUND:                -0.758
REMARK  Name = ZINC000000689945
REMARK  11 active torsions:
REMARK  status: ('A' for Active; 'I' for Inactive)
REMARK    1  A    between atoms: C_1  and  O_2
REMARK    2  A    between atoms: O_2  and  C_3
REMARK    3  A    between atoms: C_8  and  O_9
REMARK    4  A    between atoms: O_9  and  C_10
REMARK    5  A    between atoms: C_11  and  C_12
REMARK    6  A    between atoms: C_12  and  C_13
REMARK    7  A    between atoms: C_16  and  O_17
REMARK    8  A    between atoms: O_17  and  C_18
REMARK    9  A    between atoms: C_18  and  C_19
REMARK   10  A    between atoms: C_25  and  O_26
REMARK   11  A    between atoms: O_26  and  C_27
REMARK                            x       y       z     vdW  Elec       q    Type
REMARK                         _______ _______ _______ _____ _____    ______ ____
ROOT
ATOM      1  C   UNL     1       2.207   2.939 -23.919  0.00  0.00    -0.038 A 
ATOM      2  C   UNL     1       3.066   1.998 -24.171  0.00  0.00    +0.008 A 
ATOM      3  C   UNL     1       4.336   2.211 -23.990  0.00  0.00    +0.050 A 
ATOM      4  C   UNL     1       4.746   3.366 -23.557  0.00  0.00    +0.162 A 
ATOM      5  C   UNL     1       3.885   4.308 -23.305  0.00  0.00    +0.162 A 
ATOM      6  C   UNL     1       2.616   4.094 -23.485  0.00  0.00    +0.053 A 
ENDROOT
BRANCH   5   7
ATOM      7  O   UNL     1       4.294   5.463 -22.871  0.00  0.00    -0.491 OA
ATOM      8  C   UNL     1       3.430   6.384 -22.559  0.00  0.00    +0.277 C 
ENDBRANCH   5   7
BRANCH   1   9
ATOM      9  C   UNL     1       0.937   2.725 -24.099  0.00  0.00    +0.090 C 
BRANCH   9  14
ATOM     10  C   UNL     1      -3.613   3.372 -23.174  0.00  0.00    +0.162 A 
ATOM     11  C   UNL     1      -3.112   2.780 -22.131  0.00  0.00    +0.053 A 
ATOM     12  C   UNL     1      -1.850   2.470 -22.101  0.00  0.00    -0.033 A 
ATOM     13  C   UNL     1      -1.088   2.753 -23.115  0.00  0.00    +0.003 A 
ATOM     14  C   UNL     1       0.175   2.443 -23.085  0.00  0.00    +0.048 C 
ATOM     15  N   UNL     1       0.674   1.851 -22.041  0.00  0.00    -0.287 NA
ATOM     16  C   UNL     1      -0.088   1.568 -21.027  0.00  0.00    +0.146 C 
ATOM     17  C   UNL     1      -1.587   3.345 -24.159  0.00  0.00    +0.059 A 
ATOM     18  C   UNL     1      -1.351   1.878 -21.057  0.00  0.00    +0.059 C 
ATOM     19  C   UNL     1      -2.849   3.655 -24.189  0.00  0.00    +0.162 A 
BRANCH  10  21
ATOM     20  C   UNL     1      -5.663   3.291 -22.247  0.00  0.00    +0.277 C 
ATOM     21  O   UNL     1      -4.875   3.682 -23.204  0.00  0.00    -0.491 OA
ENDBRANCH  10  21
BRANCH  19  22
ATOM     22  O   UNL     1      -3.350   4.247 -25.232  0.00  0.00    -0.491 OA
ATOM     23  C   UNL     1      -3.359   3.642 -26.382  0.00  0.00    +0.277 C 
ENDBRANCH  19  22
ENDBRANCH   9  14
ENDBRANCH   1   9
BRANCH   4  24
ATOM     24  O   UNL     1       6.015   3.580 -23.376  0.00  0.00    -0.484 OA
BRANCH  24  25
ATOM     25  C   UNL     1       6.552   3.360 -22.213  0.00  0.00    +0.264 C 
BRANCH  25  26
ATOM     26  C   UNL     1       7.346   4.244 -21.685  0.00  0.00    -0.010 A 
ATOM     27  C   UNL     1       8.267   4.806 -22.411  0.00  0.00    +0.007 A 
ATOM     28  C   UNL     1       9.061   5.690 -21.885  0.00  0.00    +0.000 A 
ATOM     29  C   UNL     1       8.935   6.012 -20.632  0.00  0.00    +0.000 A 
ATOM     30  C   UNL     1       8.014   5.451 -19.905  0.00  0.00    +0.000 A 
ATOM     31  C   UNL     1       7.220   4.567 -20.432  0.00  0.00    +0.007 A 
ENDBRANCH  25  26
ENDBRANCH  24  25
ENDBRANCH   4  24
TORSDOF 8
ENDMDL
MODEL 3
REMARK VINA RESULT:    -9.131      1.784      8.899
REMARK INTER + INTRA:         -14.160
REMARK INTER:                 -13.154
REMARK INTRA:                  -1.006
REMARK UNBOUND:                -0.758
REMARK  Name = ZINC000000689945
REMARK  11 active torsions:
REMARK  status: ('A' for Active; 'I' for Inactive)
REMARK    1  A    between atoms: C_1  and  O_2
REMARK    2  A    between atoms: O_2  and  C_3
REMARK    3  A    between atoms: C_8  and  O_9
REMARK    4  A    between atoms: O_9  and  C_10
REMARK    5  A    between atoms: C_11  and  C_12
REMARK    6  A    between atoms: C_12  and  C_13
REMARK    7  A    between atoms: C_16  and  O_17
REMARK    8  A    between atoms: O_17  and  C_18
REMARK    9  A    between atoms: C_18  and  C_19
REMARK   10  A    between atoms: C_25  and  O_26
REMARK   11  A    between atoms: O_26  and  C_27
REMARK                            x       y       z     vdW  Elec       q    Type
REMARK                         _______ _______ _______ _____ _____    ______ ____
ROOT
ATOM      1  C   UNL     1       2.270   3.947 -23.624  0.00  0.00    -0.038 A 
ATOM      2  C   UNL     1       2.312   5.194 -23.261  0.00  0.00    +0.008 A 
ATOM      3  C   UNL     1       3.445   5.736 -22.924  0.00  0.00    +0.050 A 
ATOM      4  C   UNL     1       4.537   5.030 -22.951  0.00  0.00    +0.162 A 
ATOM      5  C   UNL     1       4.494   3.782 -23.315  0.00  0.00    +0.162 A 
ATOM      6  C   UNL     1       3.362   3.240 -23.651  0.00  0.00    +0.053 A 
ENDROOT
BRANCH   5   7
ATOM      7  O   UNL     1       5.586   3.075 -23.342  0.00  0.00    -0.491 OA
ATOM      8  C   UNL     1       5.785   2.154 -22.447  0.00  0.00    +0.277 C 
ENDBRANCH   5   7
BRANCH   1   9
ATOM      9  C   UNL     1       1.138   3.405 -23.961  0.00  0.00    +0.090 C 
BRANCH   9  14
ATOM     10  C   UNL     1      -3.459   3.318 -23.042  0.00  0.00    +0.162 A 
ATOM     11  C   UNL     1      -2.897   2.555 -22.151  0.00  0.00    +0.053 A 
ATOM     12  C   UNL     1      -1.609   2.386 -22.158  0.00  0.00    -0.033 A 
ATOM     13  C   UNL     1      -0.880   2.981 -23.056  0.00  0.00    +0.003 A 
ATOM     14  C   UNL     1       0.409   2.811 -23.063  0.00  0.00    +0.048 C 
ATOM     15  N   UNL     1       0.969   2.048 -22.172  0.00  0.00    -0.287 NA
ATOM     16  C   UNL     1       0.241   1.454 -21.274  0.00  0.00    +0.146 C 
ATOM     17  C   UNL     1      -1.440   3.743 -23.947  0.00  0.00    +0.059 A 
ATOM     18  C   UNL     1      -1.049   1.623 -21.267  0.00  0.00    +0.059 C 
ATOM     19  C   UNL     1      -2.729   3.912 -23.940  0.00  0.00    +0.162 A 
BRANCH  10  21
ATOM     20  C   UNL     1      -5.426   3.265 -21.948  0.00  0.00    +0.277 C 
ATOM     21  O   UNL     1      -4.748   3.487 -23.035  0.00  0.00    -0.491 OA
ENDBRANCH  10  21
BRANCH  19  22
ATOM     22  O   UNL     1      -3.290   4.675 -24.830  0.00  0.00    -0.491 OA
ATOM     23  C   UNL     1      -3.724   4.165 -25.944  0.00  0.00    +0.277 C 
ENDBRANCH  19  22
ENDBRANCH   9  14
ENDBRANCH   1   9
BRANCH   4  24
ATOM     24  O   UNL     1       5.669   5.571 -22.615  0.00  0.00    -0.484 OA
BRANCH  24  25
ATOM     25  C   UNL     1       5.685   6.638 -21.872  0.00  0.00    +0.264 C 
BRANCH  25  26
ATOM     26  C   UNL     1       6.697   6.871 -21.090  0.00  0.00    -0.010 A 
ATOM     27  C   UNL     1       7.122   5.944 -20.283  0.00  0.00    +0.007 A 
ATOM     28  C   UNL     1       8.134   6.177 -19.501  0.00  0.00    +0.000 A 
ATOM     29  C   UNL     1       8.721   7.337 -19.526  0.00  0.00    +0.000 A 
ATOM     30  C   UNL     1       8.296   8.263 -20.332  0.00  0.00    +0.000 A 
ATOM     31  C   UNL     1       7.284   8.031 -21.115  0.00  0.00    +0.007 A 
ENDBRANCH  25  26
ENDBRANCH  24  25
ENDBRANCH   4  24
TORSDOF 8
ENDMDL
MODEL 4
REMARK VINA RESULT:    -9.086      0.701      1.068
REMARK INTER + INTRA:         -14.094
REMARK INTER:                 -13.145
REMARK INTRA:                  -0.949
REMARK UNBOUND:                -0.758
REMARK  Name = ZINC000000689945
REMARK  11 active torsions:
REMARK  status: ('A' for Active; 'I' for Inactive)
REMARK    1  A    between atoms: C_1  and  O_2
REMARK    2  A    between atoms: O_2  and  C_3
REMARK    3  A    between atoms: C_8  and  O_9
REMARK    4  A    between atoms: O_9  and  C_10
REMARK    5  A    between atoms: C_11  and  C_12
REMARK    6  A    between atoms: C_12  and  C_13
REMARK    7  A    between atoms: C_16  and  O_17
REMARK    8  A    between atoms: O_17  and  C_18
REMARK    9  A    between atoms: C_18  and  C_19
REMARK   10  A    between atoms: C_25  and  O_26
REMARK   11  A    between atoms: O_26  and  C_27
REMARK                            x       y       z     vdW  Elec       q    Type
REMARK                         _______ _______ _______ _____ _____    ______ ____
ROOT
ATOM      1  C   UNL     1       2.051   3.786 -23.927  0.00  0.00    -0.038 A 
ATOM      2  C   UNL     1       1.363   3.924 -25.022  0.00  0.00    +0.008 A 
ATOM      3  C   UNL     1       0.126   3.527 -25.067  0.00  0.00    +0.050 A 
ATOM      4  C   UNL     1      -0.424   2.993 -24.017  0.00  0.00    +0.162 A 
ATOM      5  C   UNL     1       0.264   2.855 -22.922  0.00  0.00    +0.162 A 
ATOM      6  C   UNL     1       1.501   3.252 -22.877  0.00  0.00    +0.053 A 
ENDROOT
BRANCH   5   7
ATOM      7  O   UNL     1      -0.285   2.321 -21.871  0.00  0.00    -0.491 OA
ATOM      8  C   UNL     1       0.385   1.474 -21.147  0.00  0.00    +0.277 C 
ENDBRANCH   5   7
BRANCH   1   9
ATOM      9  C   UNL     1       3.287   4.183 -23.883  0.00  0.00    +0.090 C 
BRANCH   9  14
ATOM     10  C   UNL     1       7.135   5.234 -21.418  0.00  0.00    +0.162 A 
ATOM     11  C   UNL     1       7.036   3.938 -21.399  0.00  0.00    +0.053 A 
ATOM     12  C   UNL     1       6.050   3.351 -22.010  0.00  0.00    -0.033 A 
ATOM     13  C   UNL     1       5.162   4.061 -22.641  0.00  0.00    +0.003 A 
ATOM     14  C   UNL     1       4.175   3.474 -23.252  0.00  0.00    +0.048 C 
ATOM     15  N   UNL     1       4.078   2.178 -23.232  0.00  0.00    -0.287 NA
ATOM     16  C   UNL     1       4.966   1.468 -22.601  0.00  0.00    +0.146 C 
ATOM     17  C   UNL     1       5.260   5.357 -22.660  0.00  0.00    +0.059 A 
ATOM     18  C   UNL     1       5.952   2.055 -21.990  0.00  0.00    +0.059 C 
ATOM     19  C   UNL     1       6.245   5.943 -22.049  0.00  0.00    +0.162 A 
BRANCH  10  21
ATOM     20  C   UNL     1       8.361   5.555 -19.557  0.00  0.00    +0.277 C 
ATOM     21  O   UNL     1       8.120   5.820 -20.807  0.00  0.00    -0.491 OA
ENDBRANCH  10  21
BRANCH  19  22
ATOM     22  O   UNL     1       6.344   7.239 -22.068  0.00  0.00    -0.491 OA
ATOM     23  C   UNL     1       5.497   7.966 -21.403  0.00  0.00    +0.277 C 
ENDBRANCH  19  22
ENDBRANCH   9  14
ENDBRANCH   1   9
BRANCH   4  24
ATOM     24  O   UNL     1      -1.661   2.596 -24.061  0.00  0.00    -0.484 OA
BRANCH  24  25
ATOM     25  C   UNL     1      -2.621   3.469 -24.137  0.00  0.00    +0.264 C 
BRANCH  25  26
ATOM     26  C   UNL     1      -3.672   3.348 -23.381  0.00  0.00    -0.010 A 
ATOM     27  C   UNL     1      -4.833   3.743 -23.815  0.00  0.00    +0.007 A 
ATOM     28  C   UNL     1      -5.884   3.622 -23.060  0.00  0.00    +0.000 A 
ATOM     29  C   UNL     1      -5.775   3.107 -21.872  0.00  0.00    +0.000 A 
ATOM     30  C   UNL     1      -4.615   2.711 -21.438  0.00  0.00    +0.000 A 
ATOM     31  C   UNL     1      -3.563   2.832 -22.193  0.00  0.00    +0.007 A 
ENDBRANCH  25  26
ENDBRANCH  24  25
ENDBRANCH   4  24
TORSDOF 8
ENDMDL
MODEL 5
REMARK VINA RESULT:    -8.172      2.172      9.112
REMARK INTER + INTRA:         -12.752
REMARK INTER:                 -12.128
REMARK INTRA:                  -0.624
REMARK UNBOUND:                -0.758
REMARK  Name = ZINC000000689945
REMARK  11 active torsions:
REMARK  status: ('A' for Active; 'I' for Inactive)
REMARK    1  A    between atoms: C_1  and  O_2
REMARK    2  A    between atoms: O_2  and  C_3
REMARK    3  A    between atoms: C_8  and  O_9
REMARK    4  A    between atoms: O_9  and  C_10
REMARK    5  A    between atoms: C_11  and  C_12
REMARK    6  A    between atoms: C_12  and  C_13
REMARK    7  A    between atoms: C_16  and  O_17
REMARK    8  A    between atoms: O_17  and  C_18
REMARK    9  A    between atoms: C_18  and  C_19
REMARK   10  A    between atoms: C_25  and  O_26
REMARK   11  A    between atoms: O_26  and  C_27
REMARK                            x       y       z     vdW  Elec       q    Type
REMARK                         _______ _______ _______ _____ _____    ______ ____
ROOT
ATOM      1  C   UNL     1       1.077   3.863 -23.143  0.00  0.00    -0.038 A 
ATOM      2  C   UNL     1       1.354   2.626 -23.427  0.00  0.00    +0.008 A 
ATOM      3  C   UNL     1       2.583   2.271 -23.657  0.00  0.00    +0.050 A 
ATOM      4  C   UNL     1       3.536   3.154 -23.602  0.00  0.00    +0.162 A 
ATOM      5  C   UNL     1       3.258   4.392 -23.318  0.00  0.00    +0.162 A 
ATOM      6  C   UNL     1       2.029   4.747 -23.088  0.00  0.00    +0.053 A 
ENDROOT
BRANCH   5   7
ATOM      7  O   UNL     1       4.210   5.276 -23.263  0.00  0.00    -0.491 OA
ATOM      8  C   UNL     1       4.075   6.332 -22.516  0.00  0.00    +0.277 C 
ENDBRANCH   5   7
BRANCH   1   9
ATOM      9  C   UNL     1      -0.153   4.218 -22.913  0.00  0.00    +0.090 C 
BRANCH   9  14
ATOM     10  C   UNL     1      -4.789   3.589 -22.610  0.00  0.00    +0.162 A 
ATOM     11  C   UNL     1      -4.482   3.423 -23.862  0.00  0.00    +0.053 A 
ATOM     12  C   UNL     1      -3.248   3.538 -24.251  0.00  0.00    -0.033 A 
ATOM     13  C   UNL     1      -2.318   3.820 -23.388  0.00  0.00    +0.003 A 
ATOM     14  C   UNL     1      -1.082   3.936 -23.777  0.00  0.00    +0.048 C 
ATOM     15  N   UNL     1      -0.777   3.769 -25.030  0.00  0.00    -0.287 NA
ATOM     16  C   UNL     1      -1.707   3.487 -25.893  0.00  0.00    +0.146 C 
ATOM     17  C   UNL     1      -2.623   3.987 -22.135  0.00  0.00    +0.059 A 
ATOM     18  C   UNL     1      -2.943   3.372 -25.504  0.00  0.00    +0.059 C 
ATOM     19  C   UNL     1      -3.858   3.872 -21.746  0.00  0.00    +0.162 A 
BRANCH  10  21
ATOM     20  C   UNL     1      -6.449   2.346 -21.735  0.00  0.00    +0.277 C 
ATOM     21  O   UNL     1      -6.024   3.474 -22.221  0.00  0.00    -0.491 OA
ENDBRANCH  10  21
BRANCH  19  22
ATOM     22  O   UNL     1      -4.164   4.038 -20.494  0.00  0.00    -0.491 OA
ATOM     23  C   UNL     1      -3.297   3.754 -19.568  0.00  0.00    +0.277 C 
ENDBRANCH  19  22
ENDBRANCH   9  14
ENDBRANCH   1   9
BRANCH   4  24
ATOM     24  O   UNL     1       4.765   2.800 -23.831  0.00  0.00    -0.484 OA
BRANCH  24  25
ATOM     25  C   UNL     1       5.542   2.471 -22.843  0.00  0.00    +0.264 C 
BRANCH  25  26
ATOM     26  C   UNL     1       6.476   3.285 -22.450  0.00  0.00    -0.010 A 
ATOM     27  C   UNL     1       6.531   3.659 -21.205  0.00  0.00    +0.007 A 
ATOM     28  C   UNL     1       7.464   4.473 -20.812  0.00  0.00    +0.000 A 
ATOM     29  C   UNL     1       8.343   4.914 -21.662  0.00  0.00    +0.000 A 
ATOM     30  C   UNL     1       8.289   4.541 -22.906  0.00  0.00    +0.000 A 
ATOM     31  C   UNL     1       7.355   3.726 -23.300  0.00  0.00    +0.007 A 
ENDBRANCH  25  26
ENDBRANCH  24  25
ENDBRANCH   4  24
TORSDOF 8
ENDMDL
MODEL 6
REMARK VINA RESULT:    -8.122      1.914      2.946
REMARK INTER + INTRA:         -12.679
REMARK INTER:                 -11.414
REMARK INTRA:                  -1.265
REMARK UNBOUND:                -0.758
REMARK  Name = ZINC000000689945
REMARK  11 active torsions:
REMARK  status: ('A' for Active; 'I' for Inactive)
REMARK    1  A    between atoms: C_1  and  O_2
REMARK    2  A    between atoms: O_2  and  C_3
REMARK    3  A    between atoms: C_8  and  O_9
REMARK    4  A    between atoms: O_9  and  C_10
REMARK    5  A    between atoms: C_11  and  C_12
REMARK    6  A    between atoms: C_12  and  C_13
REMARK    7  A    between atoms: C_16  and  O_17
REMARK    8  A    between atoms: O_17  and  C_18
REMARK    9  A    between atoms: C_18  and  C_19
REMARK   10  A    between atoms: C_25  and  O_26
REMARK   11  A    between atoms: O_26  and  C_27
REMARK                            x       y       z     vdW  Elec       q    Type
REMARK                         _______ _______ _______ _____ _____    ______ ____
ROOT
ATOM      1  C   UNL     1       3.833   3.730 -22.686  0.00  0.00    -0.038 A 
ATOM      2  C   UNL     1       3.344   4.794 -23.250  0.00  0.00    +0.008 A 
ATOM      3  C   UNL     1       2.148   4.768 -23.761  0.00  0.00    +0.050 A 
ATOM      4  C   UNL     1       1.443   3.677 -23.709  0.00  0.00    +0.162 A 
ATOM      5  C   UNL     1       1.933   2.613 -23.145  0.00  0.00    +0.162 A 
ATOM      6  C   UNL     1       3.128   2.639 -22.633  0.00  0.00    +0.053 A 
ENDROOT
BRANCH   5   7
ATOM      7  O   UNL     1       1.228   1.522 -23.092  0.00  0.00    -0.491 OA
ATOM      8  C   UNL     1       0.640   1.181 -21.983  0.00  0.00    +0.277 C 
ENDBRANCH   5   7
BRANCH   1   9
ATOM      9  C   UNL     1       5.028   3.757 -22.175  0.00  0.00    +0.090 C 
BRANCH   9  14
ATOM     10  C   UNL     1       7.735   7.581 -22.357  0.00  0.00    +0.162 A 
ATOM     11  C   UNL     1       8.183   6.777 -23.275  0.00  0.00    +0.053 A 
ATOM     12  C   UNL     1       7.618   5.620 -23.459  0.00  0.00    -0.033 A 
ATOM     13  C   UNL     1       6.605   5.267 -22.725  0.00  0.00    +0.003 A 
ATOM     14  C   UNL     1       6.041   4.110 -22.909  0.00  0.00    +0.048 C 
ATOM     15  N   UNL     1       6.490   3.307 -23.827  0.00  0.00    -0.287 NA
ATOM     16  C   UNL     1       7.503   3.660 -24.561  0.00  0.00    +0.146 C 
ATOM     17  C   UNL     1       6.156   6.071 -21.807  0.00  0.00    +0.059 A 
ATOM     18  C   UNL     1       8.067   4.817 -24.377  0.00  0.00    +0.059 C 
ATOM     19  C   UNL     1       6.720   7.227 -21.623  0.00  0.00    +0.162 A 
BRANCH  10  21
ATOM     20  C   UNL     1       8.318   9.611 -23.135  0.00  0.00    +0.277 C 
ATOM     21  O   UNL     1       8.299   8.737 -22.173  0.00  0.00    -0.491 OA
ENDBRANCH  10  21
BRANCH  19  22
ATOM     22  O   UNL     1       6.272   8.031 -20.705  0.00  0.00    -0.491 OA
ATOM     23  C   UNL     1       5.001   8.292 -20.633  0.00  0.00    +0.277 C 
ENDBRANCH  19  22
ENDBRANCH   9  14
ENDBRANCH   1   9
BRANCH   4  24
ATOM     24  O   UNL     1       0.248   3.650 -24.220  0.00  0.00    -0.484 OA
BRANCH  24  25
ATOM     25  C   UNL     1      -0.633   4.535 -23.860  0.00  0.00    +0.264 C 
BRANCH  25  26
ATOM     26  C   UNL     1      -1.816   4.157 -23.476  0.00  0.00    -0.010 A 
ATOM     27  C   UNL     1      -2.802   4.148 -24.324  0.00  0.00    +0.007 A 
ATOM     28  C   UNL     1      -3.985   3.770 -23.940  0.00  0.00    +0.000 A 
ATOM     29  C   UNL     1      -4.183   3.401 -22.710  0.00  0.00    +0.000 A 
ATOM     30  C   UNL     1      -3.198   3.411 -21.862  0.00  0.00    +0.000 A 
ATOM     31  C   UNL     1      -2.014   3.789 -22.245  0.00  0.00    +0.007 A 
ENDBRANCH  25  26
ENDBRANCH  24  25
ENDBRANCH   4  24
TORSDOF 8
ENDMDL
MODEL 7
REMARK VINA RESULT:    -8.081      2.021      8.190
REMARK INTER + INTRA:         -12.619
REMARK INTER:                 -11.445
REMARK INTRA:                  -1.174
REMARK UNBOUND:                -0.758
REMARK  Name = ZINC000000689945
REMARK  11 active torsions:
REMARK  status: ('A' for Active; 'I' for Inactive)
REMARK    1  A    between atoms: C_1  and  O_2
REMARK    2  A    between atoms: O_2  and  C_3
REMARK    3  A    between atoms: C_8  and  O_9
REMARK    4  A    between atoms: O_9  and  C_10
REMARK    5  A    between atoms: C_11  and  C_12
REMARK    6  A    between atoms: C_12  and  C_13
REMARK    7  A    between atoms: C_16  and  O_17
REMARK    8  A    between atoms: O_17  and  C_18
REMARK    9  A    between atoms: C_18  and  C_19
REMARK   10  A    between atoms: C_25  and  O_26
REMARK   11  A    between atoms: O_26  and  C_27
REMARK                            x       y       z     vdW  Elec       q    Type
REMARK                         _______ _______ _______ _____ _____    ______ ____
ROOT
ATOM      1  C   UNL     1       3.219   4.630 -23.233  0.00  0.00    -0.038 A 
ATOM      2  C   UNL     1       2.705   5.776 -22.898  0.00  0.00    +0.008 A 
ATOM      3  C   UNL     1       3.471   6.724 -22.444  0.00  0.00    +0.050 A 
ATOM      4  C   UNL     1       4.750   6.526 -22.326  0.00  0.00    +0.162 A 
ATOM      5  C   UNL     1       5.263   5.379 -22.662  0.00  0.00    +0.162 A 
ATOM      6  C   UNL     1       4.498   4.432 -23.115  0.00  0.00    +0.053 A 
ENDROOT
BRANCH   5   7
ATOM      7  O   UNL     1       6.543   5.180 -22.544  0.00  0.00    -0.491 OA
ATOM      8  C   UNL     1       6.984   4.217 -21.790  0.00  0.00    +0.277 C 
ENDBRANCH   5   7
BRANCH   1   9
ATOM      9  C   UNL     1       2.453   3.683 -23.687  0.00  0.00    +0.090 C 
BRANCH   9  14
ATOM     10  C   UNL     1      -2.088   2.687 -23.079  0.00  0.00    +0.162 A 
ATOM     11  C   UNL     1      -1.444   2.005 -22.178  0.00  0.00    +0.053 A 
ATOM     12  C   UNL     1      -0.149   2.084 -22.105  0.00  0.00    -0.033 A 
ATOM     13  C   UNL     1       0.504   2.844 -22.933  0.00  0.00    +0.003 A 
ATOM     14  C   UNL     1       1.800   2.923 -22.859  0.00  0.00    +0.048 C 
ATOM     15  N   UNL     1       2.442   2.241 -21.958  0.00  0.00    -0.287 NA
ATOM     16  C   UNL     1       1.789   1.480 -21.130  0.00  0.00    +0.146 C 
ATOM     17  C   UNL     1      -0.138   3.527 -23.833  0.00  0.00    +0.059 A 
ATOM     18  C   UNL     1       0.493   1.402 -21.204  0.00  0.00    +0.059 C 
ATOM     19  C   UNL     1      -1.434   3.448 -23.907  0.00  0.00    +0.162 A 
BRANCH  10  21
ATOM     20  C   UNL     1      -4.119   3.111 -22.205  0.00  0.00    +0.277 C 
ATOM     21  O   UNL     1      -3.383   2.609 -23.152  0.00  0.00    -0.491 OA
ENDBRANCH  10  21
BRANCH  19  22
ATOM     22  O   UNL     1      -2.077   4.130 -24.807  0.00  0.00    -0.491 OA
ATOM     23  C   UNL     1      -2.209   3.657 -26.011  0.00  0.00    +0.277 C 
ENDBRANCH  19  22
ENDBRANCH   9  14
ENDBRANCH   1   9
BRANCH   4  24
ATOM     24  O   UNL     1       5.516   7.473 -21.872  0.00  0.00    -0.484 OA
BRANCH  24  25
ATOM     25  C   UNL     1       5.552   8.624 -22.475  0.00  0.00    +0.264 C 
BRANCH  25  26
ATOM     26  C   UNL     1       4.855   9.621 -22.017  0.00  0.00    -0.010 A 
ATOM     27  C   UNL     1       4.828   9.863 -20.740  0.00  0.00    +0.007 A 
ATOM     28  C   UNL     1       4.131  10.860 -20.281  0.00  0.00    +0.000 A 
ATOM     29  C   UNL     1       3.461  11.615 -21.100  0.00  0.00    +0.000 A 
ATOM     30  C   UNL     1       3.487  11.373 -22.377  0.00  0.00    +0.000 A 
ATOM     31  C   UNL     1       4.184  10.376 -22.836  0.00  0.00    +0.007 A 
ENDBRANCH  25  26
ENDBRANCH  24  25
ENDBRANCH   4  24
TORSDOF 8
ENDMDL
MODEL 8
REMARK VINA RESULT:    -7.791      2.694      8.537
REMARK INTER + INTRA:         -12.193
REMARK INTER:                 -11.435
REMARK INTRA:                  -0.758
REMARK UNBOUND:                -0.758
REMARK  Name = ZINC000000689945
REMARK  11 active torsions:
REMARK  status: ('A' for Active; 'I' for Inactive)
REMARK    1  A    between atoms: C_1  and  O_2
REMARK    2  A    between atoms: O_2  and  C_3
REMARK    3  A    between atoms: C_8  and  O_9
REMARK    4  A    between atoms: O_9  and  C_10
REMARK    5  A    between atoms: C_11  and  C_12
REMARK    6  A    between atoms: C_12  and  C_13
REMARK    7  A    between atoms: C_16  and  O_17
REMARK    8  A    between atoms: O_17  and  C_18
REMARK    9  A    between atoms: C_18  and  C_19
REMARK   10  A    between atoms: C_25  and  O_26
REMARK   11  A    between atoms: O_26  and  C_27
REMARK                            x       y       z     vdW  Elec       q    Type
REMARK                         _______ _______ _______ _____ _____    ______ ____
ROOT
ATOM      1  C   UNL     1       0.361   4.071 -24.141  0.00  0.00    -0.038 A 
ATOM      2  C   UNL     1       0.441   3.031 -24.917  0.00  0.00    +0.008 A 
ATOM      3  C   UNL     1       1.586   2.440 -25.097  0.00  0.00    +0.050 A 
ATOM      4  C   UNL     1       2.650   2.890 -24.500  0.00  0.00    +0.162 A 
ATOM      5  C   UNL     1       2.569   3.930 -23.724  0.00  0.00    +0.162 A 
ATOM      6  C   UNL     1       1.425   4.520 -23.545  0.00  0.00    +0.053 A 
ENDROOT
BRANCH   5   7
ATOM      7  O   UNL     1       3.633   4.380 -23.128  0.00  0.00    -0.491 OA
ATOM      8  C   UNL     1       3.732   5.644 -22.841  0.00  0.00    +0.277 C 
ENDBRANCH   5   7
BRANCH   1   9
ATOM      9  C   UNL     1      -0.783   4.661 -23.962  0.00  0.00    +0.090 C 
BRANCH   9  14
ATOM     10  C   UNL     1      -5.098   3.589 -22.476  0.00  0.00    +0.162 A 
ATOM     11  C   UNL     1      -5.081   3.335 -23.751  0.00  0.00    +0.053 A 
ATOM     12  C   UNL     1      -3.999   3.540 -24.441  0.00  0.00    -0.033 A 
ATOM     13  C   UNL     1      -2.932   3.998 -23.856  0.00  0.00    +0.003 A 
ATOM     14  C   UNL     1      -1.849   4.202 -24.547  0.00  0.00    +0.048 C 
ATOM     15  N   UNL     1      -1.834   3.949 -25.821  0.00  0.00    -0.287 NA
ATOM     16  C   UNL     1      -2.901   3.490 -26.406  0.00  0.00    +0.146 C 
ATOM     17  C   UNL     1      -2.948   4.252 -22.581  0.00  0.00    +0.059 A 
ATOM     18  C   UNL     1      -3.983   3.286 -25.715  0.00  0.00    +0.059 C 
ATOM     19  C   UNL     1      -4.030   4.047 -21.892  0.00  0.00    +0.162 A 
BRANCH  10  21
ATOM     20  C   UNL     1      -6.653   2.180 -21.661  0.00  0.00    +0.277 C 
ATOM     21  O   UNL     1      -6.180   3.384 -21.786  0.00  0.00    -0.491 OA
ENDBRANCH  10  21
BRANCH  19  22
ATOM     22  O   UNL     1      -4.047   4.301 -20.616  0.00  0.00    -0.491 OA
ATOM     23  C   UNL     1      -3.219   3.692 -19.821  0.00  0.00    +0.277 C 
ENDBRANCH  19  22
ENDBRANCH   9  14
ENDBRANCH   1   9
BRANCH   4  24
ATOM     24  O   UNL     1       3.793   2.299 -24.680  0.00  0.00    -0.484 OA
BRANCH  24  25
ATOM     25  C   UNL     1       4.000   1.117 -24.181  0.00  0.00    +0.264 C 
BRANCH  25  26
ATOM     26  C   UNL     1       4.184   0.973 -22.902  0.00  0.00    -0.010 A 
ATOM     27  C   UNL     1       3.243   0.462 -22.164  0.00  0.00    +0.007 A 
ATOM     28  C   UNL     1       3.426   0.318 -20.885  0.00  0.00    +0.000 A 
ATOM     29  C   UNL     1       4.550   0.685 -20.344  0.00  0.00    +0.000 A 
ATOM     30  C   UNL     1       5.490   1.196 -21.081  0.00  0.00    +0.000 A 
ATOM     31  C   UNL     1       5.307   1.340 -22.360  0.00  0.00    +0.007 A 
ENDBRANCH  25  26
ENDBRANCH  24  25
ENDBRANCH   4  24
TORSDOF 8
ENDMDL
MODEL 9
REMARK VINA RESULT:    -7.738      1.593      2.308
REMARK INTER + INTRA:         -12.115
REMARK INTER:                 -11.401
REMARK INTRA:                  -0.714
REMARK UNBOUND:                -0.758
REMARK  Name = ZINC000000689945
REMARK  11 active torsions:
REMARK  status: ('A' for Active; 'I' for Inactive)
REMARK    1  A    between atoms: C_1  and  O_2
REMARK    2  A    between atoms: O_2  and  C_3
REMARK    3  A    between atoms: C_8  and  O_9
REMARK    4  A    between atoms: O_9  and  C_10
REMARK    5  A    between atoms: C_11  and  C_12
REMARK    6  A    between atoms: C_12  and  C_13
REMARK    7  A    between atoms: C_16  and  O_17
REMARK    8  A    between atoms: O_17  and  C_18
REMARK    9  A    between atoms: C_18  and  C_19
REMARK   10  A    between atoms: C_25  and  O_26
REMARK   11  A    between atoms: O_26  and  C_27
REMARK                            x       y       z     vdW  Elec       q    Type
REMARK                         _______ _______ _______ _____ _____    ______ ____
ROOT
ATOM      1  C   UNL     1       2.631   2.517 -24.177  0.00  0.00    -0.038 A 
ATOM      2  C   UNL     1       1.597   1.879 -24.638  0.00  0.00    +0.008 A 
ATOM      3  C   UNL     1       0.463   2.499 -24.786  0.00  0.00    +0.050 A 
ATOM      4  C   UNL     1       0.364   3.756 -24.473  0.00  0.00    +0.162 A 
ATOM      5  C   UNL     1       1.399   4.395 -24.012  0.00  0.00    +0.162 A 
ATOM      6  C   UNL     1       2.532   3.775 -23.864  0.00  0.00    +0.053 A 
ENDROOT
BRANCH   5   7
ATOM      7  O   UNL     1       1.301   5.652 -23.698  0.00  0.00    -0.491 OA
ATOM      8  C   UNL     1       2.269   6.241 -23.061  0.00  0.00    +0.277 C 
ENDBRANCH   5   7
BRANCH   1   9
ATOM      9  C   UNL     1       3.764   1.897 -24.029  0.00  0.00    +0.090 C 
BRANCH   9  14
ATOM     10  C   UNL     1       6.896   4.085 -21.312  0.00  0.00    +0.162 A 
ATOM     11  C   UNL     1       6.477   3.061 -20.629  0.00  0.00    +0.053 A 
ATOM     12  C   UNL     1       5.590   2.259 -21.137  0.00  0.00    -0.033 A 
ATOM     13  C   UNL     1       5.121   2.480 -22.329  0.00  0.00    +0.003 A 
ATOM     14  C   UNL     1       4.233   1.677 -22.837  0.00  0.00    +0.048 C 
ATOM     15  N   UNL     1       3.815   0.653 -22.153  0.00  0.00    -0.287 NA
ATOM     16  C   UNL     1       4.284   0.432 -20.961  0.00  0.00    +0.146 C 
ATOM     17  C   UNL     1       5.538   3.503 -23.013  0.00  0.00    +0.059 A 
ATOM     18  C   UNL     1       5.172   1.236 -20.453  0.00  0.00    +0.059 C 
ATOM     19  C   UNL     1       6.426   4.305 -22.505  0.00  0.00    +0.162 A 
BRANCH  10  21
ATOM     20  C   UNL     1       7.439   5.738 -19.883  0.00  0.00    +0.277 C 
ATOM     21  O   UNL     1       7.783   4.888 -20.804  0.00  0.00    -0.491 OA
ENDBRANCH  10  21
BRANCH  19  22
ATOM     22  O   UNL     1       6.844   5.329 -23.188  0.00  0.00    -0.491 OA
ATOM     23  C   UNL     1       7.782   5.180 -24.075  0.00  0.00    +0.277 C 
ENDBRANCH  19  22
ENDBRANCH   9  14
ENDBRANCH   1   9
BRANCH   4  24
ATOM     24  O   UNL     1      -0.769   4.376 -24.621  0.00  0.00    -0.484 OA
BRANCH  24  25
ATOM     25  C   UNL     1      -1.791   3.750 -25.123  0.00  0.00    +0.264 C 
BRANCH  25  26
ATOM     26  C   UNL     1      -2.922   3.730 -24.480  0.00  0.00    -0.010 A 
ATOM     27  C   UNL     1      -4.010   4.131 -25.069  0.00  0.00    +0.007 A 
ATOM     28  C   UNL     1      -5.140   4.112 -24.427  0.00  0.00    +0.000 A 
ATOM     29  C   UNL     1      -5.183   3.692 -23.198  0.00  0.00    +0.000 A 
ATOM     30  C   UNL     1      -4.095   3.291 -22.610  0.00  0.00    +0.000 A 
ATOM     31  C   UNL     1      -2.964   3.310 -23.251  0.00  0.00    +0.007 A 
ENDBRANCH  25  26
ENDBRANCH  24  25
ENDBRANCH   4  24
TORSDOF 8
ENDMDL
