MODEL 1
REMARK VINA RESULT:    -9.530      0.000      0.000
REMARK INTER + INTRA:         -12.617
REMARK INTER:                 -12.751
REMARK INTRA:                   0.134
REMARK UNBOUND:                -0.023
REMARK  Name = COc1ccc(CC(=O)c2c(O)cc3c(c2OC)CCC(C)(C)O3)cc1                        ZINC000248341351
REMARK  10 active torsions:
REMARK  status: ('A' for Active; 'I' for Inactive)
REMARK    1  A    between atoms: C_1  and  O_2
REMARK    2  A    between atoms: O_2  and  C_3
REMARK    3  A    between atoms: C_6  and  C_7
REMARK    4  A    between atoms: C_7  and  C_8
REMARK    5  A    between atoms: C_8  and  C_10
REMARK    6  A    between atoms: C_11  and  O_12
REMARK    7  A    between atoms: C_16  and  O_17
REMARK    8  A    between atoms: O_17  and  C_18
REMARK    9  A    between atoms: C_21  and  C_22
REMARK   10  A    between atoms: C_21  and  C_23
REMARK                            x       y       z     vdW  Elec       q    Type
REMARK                         _______ _______ _______ _____ _____    ______ ____
ROOT
ATOM      1  C   UNL     1      -0.257   3.048 -23.729  0.00  0.00    +0.101 A 
ATOM      2  C   UNL     1      -0.809   3.461 -24.831  0.00  0.00    +0.134 A 
ATOM      3  C   UNL     1      -2.094   3.648 -24.884  0.00  0.00    +0.092 A 
ATOM      4  C   UNL     1      -2.828   3.423 -23.836  0.00  0.00    +0.131 A 
ATOM      5  C   UNL     1      -2.276   3.009 -22.733  0.00  0.00    +0.037 A 
ATOM      6  C   UNL     1      -3.010   2.783 -21.683  0.00  0.00    +0.046 C 
ATOM      7  C   UNL     1      -4.295   2.970 -21.737  0.00  0.00    +0.052 C 
ATOM      8  C   UNL     1      -4.847   3.383 -22.840  0.00  0.00    +0.105 C 
ATOM      9  C   UNL     1      -5.764   3.764 -23.679  0.00  0.00    +0.055 C 
ATOM     10  C   UNL     1      -5.899   3.289 -22.082  0.00  0.00    +0.055 C 
ATOM     11  O   UNL     1      -4.113   3.609 -23.888  0.00  0.00    -0.486 OA
ATOM     12  C   UNL     1      -0.990   2.822 -22.680  0.00  0.00    +0.141 A 
ENDROOT
BRANCH   1  13
ATOM     13  C   UNL     1       1.028   2.862 -23.676  0.00  0.00    +0.174 C 
ATOM     14  O   UNL     1       1.564   1.849 -24.290  0.00  0.00    -0.291 OA
BRANCH  13  15
ATOM     15  C   UNL     1       1.778   3.688 -23.008  0.00  0.00    +0.115 C 
BRANCH  15  19
ATOM     16  C   UNL     1       5.590   2.969 -22.604  0.00  0.00    +0.120 A 
ATOM     17  C   UNL     1       5.189   3.951 -23.356  0.00  0.00    +0.046 A 
ATOM     18  C   UNL     1       3.919   4.191 -23.491  0.00  0.00    +0.007 A 
ATOM     19  C   UNL     1       3.049   3.448 -22.873  0.00  0.00    -0.040 A 
ATOM     20  C   UNL     1       3.449   2.467 -22.121  0.00  0.00    +0.007 A 
ATOM     21  C   UNL     1       4.720   2.227 -21.986  0.00  0.00    +0.046 A 
BRANCH  16  23
ATOM     22  C   UNL     1       7.711   3.256 -23.301  0.00  0.00    +0.277 C 
ATOM     23  O   UNL     1       6.861   2.731 -22.470  0.00  0.00    -0.495 OA
ENDBRANCH  16  23
ENDBRANCH  15  19
ENDBRANCH  13  15
ENDBRANCH   1  13
BRANCH   2  24
ATOM     24  O   UNL     1      -0.075   3.688 -25.880  0.00  0.00    -0.506 OA
ATOM     25  H   UNL     1       0.819   3.407 -25.896  0.00  0.00    +0.292 HD
ENDBRANCH   2  24
BRANCH  12  26
ATOM     26  O   UNL     1      -0.439   2.409 -21.577  0.00  0.00    -0.494 OA
ATOM     27  C   UNL     1      -0.312   1.135 -21.352  0.00  0.00    +0.277 C 
ENDBRANCH  12  26
TORSDOF 6
ENDMDL
MODEL 2
REMARK VINA RESULT:    -9.381      1.585      7.696
REMARK INTER + INTRA:         -12.419
REMARK INTER:                 -12.608
REMARK INTRA:                   0.188
REMARK UNBOUND:                -0.023
REMARK  Name = COc1ccc(CC(=O)c2c(O)cc3c(c2OC)CCC(C)(C)O3)cc1                        ZINC000248341351
REMARK  10 active torsions:
REMARK  status: ('A' for Active; 'I' for Inactive)
REMARK    1  A    between atoms: C_1  and  O_2
REMARK    2  A    between atoms: O_2  and  C_3
REMARK    3  A    between atoms: C_6  and  C_7
REMARK    4  A    between atoms: C_7  and  C_8
REMARK    5  A    between atoms: C_8  and  C_10
REMARK    6  A    between atoms: C_11  and  O_12
REMARK    7  A    between atoms: C_16  and  O_17
REMARK    8  A    between atoms: O_17  and  C_18
REMARK    9  A    between atoms: C_21  and  C_22
REMARK   10  A    between atoms: C_21  and  C_23
REMARK                            x       y       z     vdW  Elec       q    Type
REMARK                         _______ _______ _______ _____ _____    ______ ____
ROOT
ATOM      1  C   UNL     1       1.557   3.760 -23.899  0.00  0.00    +0.101 A 
ATOM      2  C   UNL     1       1.543   4.979 -23.448  0.00  0.00    +0.134 A 
ATOM      3  C   UNL     1       2.645   5.533 -23.039  0.00  0.00    +0.092 A 
ATOM      4  C   UNL     1       3.762   4.869 -23.080  0.00  0.00    +0.131 A 
ATOM      5  C   UNL     1       3.776   3.649 -23.532  0.00  0.00    +0.037 A 
ATOM      6  C   UNL     1       4.892   2.984 -23.573  0.00  0.00    +0.046 C 
ATOM      7  C   UNL     1       5.994   3.539 -23.164  0.00  0.00    +0.052 C 
ATOM      8  C   UNL     1       5.980   4.759 -22.712  0.00  0.00    +0.105 C 
ATOM      9  C   UNL     1       6.405   5.882 -22.216  0.00  0.00    +0.055 C 
ATOM     10  C   UNL     1       7.244   4.484 -22.582  0.00  0.00    +0.055 C 
ATOM     11  O   UNL     1       4.864   5.423 -22.671  0.00  0.00    -0.486 OA
ATOM     12  C   UNL     1       2.673   3.095 -23.941  0.00  0.00    +0.141 A 
ENDROOT
BRANCH   1  13
ATOM     13  C   UNL     1       0.455   3.205 -24.309  0.00  0.00    +0.174 C 
ATOM     14  O   UNL     1       0.004   3.458 -25.502  0.00  0.00    -0.291 OA
BRANCH  13  15
ATOM     15  C   UNL     1      -0.197   2.398 -23.525  0.00  0.00    +0.115 C 
BRANCH  15  19
ATOM     16  C   UNL     1      -3.686   3.434 -22.123  0.00  0.00    +0.120 A 
ATOM     17  C   UNL     1      -3.563   3.083 -23.370  0.00  0.00    +0.046 A 
ATOM     18  C   UNL     1      -2.401   2.738 -23.837  0.00  0.00    +0.007 A 
ATOM     19  C   UNL     1      -1.360   2.743 -23.058  0.00  0.00    -0.040 A 
ATOM     20  C   UNL     1      -1.482   3.093 -21.812  0.00  0.00    +0.007 A 
ATOM     21  C   UNL     1      -2.645   3.438 -21.345  0.00  0.00    +0.046 A 
BRANCH  16  23
ATOM     22  C   UNL     1      -5.886   3.028 -21.880  0.00  0.00    +0.277 C 
ATOM     23  O   UNL     1      -4.849   3.779 -21.657  0.00  0.00    -0.495 OA
ENDBRANCH  16  23
ENDBRANCH  15  19
ENDBRANCH  13  15
ENDBRANCH   1  13
BRANCH   2  24
ATOM     24  O   UNL     1       0.427   5.644 -23.407  0.00  0.00    -0.506 OA
ATOM     25  H   UNL     1       0.213   6.243 -24.094  0.00  0.00    +0.292 HD
ENDBRANCH   2  24
BRANCH  12  26
ATOM     26  O   UNL     1       2.687   1.876 -24.392  0.00  0.00    -0.494 OA
ATOM     27  C   UNL     1       2.996   0.892 -23.599  0.00  0.00    +0.277 C 
ENDBRANCH  12  26
TORSDOF 6
ENDMDL
MODEL 3
REMARK VINA RESULT:    -9.056      1.059      2.357
REMARK INTER + INTRA:         -11.990
REMARK INTER:                 -12.521
REMARK INTRA:                   0.532
REMARK UNBOUND:                -0.023
REMARK  Name = COc1ccc(CC(=O)c2c(O)cc3c(c2OC)CCC(C)(C)O3)cc1                        ZINC000248341351
REMARK  10 active torsions:
REMARK  status: ('A' for Active; 'I' for Inactive)
REMARK    1  A    between atoms: C_1  and  O_2
REMARK    2  A    between atoms: O_2  and  C_3
REMARK    3  A    between atoms: C_6  and  C_7
REMARK    4  A    between atoms: C_7  and  C_8
REMARK    5  A    between atoms: C_8  and  C_10
REMARK    6  A    between atoms: C_11  and  O_12
REMARK    7  A    between atoms: C_16  and  O_17
REMARK    8  A    between atoms: O_17  and  C_18
REMARK    9  A    between atoms: C_21  and  C_22
REMARK   10  A    between atoms: C_21  and  C_23
REMARK                            x       y       z     vdW  Elec       q    Type
REMARK                         _______ _______ _______ _____ _____    ______ ____
ROOT
ATOM      1  C   UNL     1       0.229   2.155 -22.642  0.00  0.00    +0.101 A 
ATOM      2  C   UNL     1      -0.444   1.776 -21.596  0.00  0.00    +0.134 A 
ATOM      3  C   UNL     1      -1.715   2.032 -21.513  0.00  0.00    +0.092 A 
ATOM      4  C   UNL     1      -2.316   2.667 -22.476  0.00  0.00    +0.131 A 
ATOM      5  C   UNL     1      -1.643   3.045 -23.523  0.00  0.00    +0.037 A 
ATOM      6  C   UNL     1      -2.242   3.680 -24.486  0.00  0.00    +0.046 C 
ATOM      7  C   UNL     1      -3.513   3.936 -24.404  0.00  0.00    +0.052 C 
ATOM      8  C   UNL     1      -4.186   3.557 -23.356  0.00  0.00    +0.105 C 
ATOM      9  C   UNL     1      -5.188   3.378 -22.547  0.00  0.00    +0.055 C 
ATOM     10  C   UNL     1      -5.133   4.129 -24.039  0.00  0.00    +0.055 C 
ATOM     11  O   UNL     1      -3.587   2.923 -22.394  0.00  0.00    -0.486 OA
ATOM     12  C   UNL     1      -0.370   2.789 -23.605  0.00  0.00    +0.141 A 
ENDROOT
BRANCH   1  13
ATOM     13  C   UNL     1       1.500   1.899 -22.725  0.00  0.00    +0.174 C 
ATOM     14  O   UNL     1       1.941   1.087 -23.639  0.00  0.00    -0.291 OA
BRANCH  13  15
ATOM     15  C   UNL     1       2.331   2.454 -21.893  0.00  0.00    +0.115 C 
BRANCH  15  19
ATOM     16  C   UNL     1       6.063   2.959 -22.908  0.00  0.00    +0.120 A 
ATOM     17  C   UNL     1       5.151   3.770 -23.357  0.00  0.00    +0.046 A 
ATOM     18  C   UNL     1       3.907   3.602 -23.019  0.00  0.00    +0.007 A 
ATOM     19  C   UNL     1       3.575   2.623 -22.231  0.00  0.00    -0.040 A 
ATOM     20  C   UNL     1       4.485   1.812 -21.782  0.00  0.00    +0.007 A 
ATOM     21  C   UNL     1       5.730   1.980 -22.120  0.00  0.00    +0.046 A 
BRANCH  16  23
ATOM     22  C   UNL     1       7.599   3.726 -24.363  0.00  0.00    +0.277 C 
ATOM     23  O   UNL     1       7.306   3.128 -23.247  0.00  0.00    -0.495 OA
ENDBRANCH  16  23
ENDBRANCH  15  19
ENDBRANCH  13  15
ENDBRANCH   1  13
BRANCH   2  24
ATOM     24  O   UNL     1       0.155   1.142 -20.632  0.00  0.00    -0.506 OA
ATOM     25  H   UNL     1       0.596   1.622 -19.958  0.00  0.00    +0.292 HD
ENDBRANCH   2  24
BRANCH  12  26
ATOM     26  O   UNL     1       0.302   3.167 -24.652  0.00  0.00    -0.494 OA
ATOM     27  C   UNL     1       0.797   4.369 -24.707  0.00  0.00    +0.277 C 
ENDBRANCH  12  26
TORSDOF 6
ENDMDL
MODEL 4
REMARK VINA RESULT:    -8.968      1.375      8.008
REMARK INTER + INTRA:         -11.875
REMARK INTER:                 -11.880
REMARK INTRA:                   0.005
REMARK UNBOUND:                -0.023
REMARK  Name = COc1ccc(CC(=O)c2c(O)cc3c(c2OC)CCC(C)(C)O3)cc1                        ZINC000248341351
REMARK  10 active torsions:
REMARK  status: ('A' for Active; 'I' for Inactive)
REMARK    1  A    between atoms: C_1  and  O_2
REMARK    2  A    between atoms: O_2  and  C_3
REMARK    3  A    between atoms: C_6  and  C_7
REMARK    4  A    between atoms: C_7  and  C_8
REMARK    5  A    between atoms: C_8  and  C_10
REMARK    6  A    between atoms: C_11  and  O_12
REMARK    7  A    between atoms: C_16  and  O_17
REMARK    8  A    between atoms: O_17  and  C_18
REMARK    9  A    between atoms: C_21  and  C_22
REMARK   10  A    between atoms: C_21  and  C_23
REMARK                            x       y       z     vdW  Elec       q    Type
REMARK                         _______ _______ _______ _____ _____    ______ ____
ROOT
ATOM      1  C   UNL     1       0.688   2.734 -22.750  0.00  0.00    +0.101 A 
ATOM      2  C   UNL     1       1.023   1.898 -21.812  0.00  0.00    +0.134 A 
ATOM      3  C   UNL     1       2.260   1.823 -21.419  0.00  0.00    +0.092 A 
ATOM      4  C   UNL     1       3.163   2.583 -21.964  0.00  0.00    +0.131 A 
ATOM      5  C   UNL     1       2.828   3.419 -22.903  0.00  0.00    +0.037 A 
ATOM      6  C   UNL     1       3.730   4.179 -23.449  0.00  0.00    +0.046 C 
ATOM      7  C   UNL     1       4.967   4.104 -23.056  0.00  0.00    +0.052 C 
ATOM      8  C   UNL     1       5.302   3.267 -22.118  0.00  0.00    +0.105 C 
ATOM      9  C   UNL     1       6.039   2.618 -21.267  0.00  0.00    +0.055 C 
ATOM     10  C   UNL     1       6.460   3.802 -22.368  0.00  0.00    +0.055 C 
ATOM     11  O   UNL     1       4.399   2.508 -21.573  0.00  0.00    -0.486 OA
ATOM     12  C   UNL     1       1.590   3.494 -23.295  0.00  0.00    +0.141 A 
ENDROOT
BRANCH   1  13
ATOM     13  C   UNL     1      -0.548   2.809 -23.142  0.00  0.00    +0.174 C 
ATOM     14  O   UNL     1      -1.057   1.863 -23.875  0.00  0.00    -0.291 OA
BRANCH  13  15
ATOM     15  C   UNL     1      -1.278   3.831 -22.801  0.00  0.00    +0.115 C 
BRANCH  15  19
ATOM     16  C   UNL     1      -5.135   3.426 -22.398  0.00  0.00    +0.120 A 
ATOM     17  C   UNL     1      -4.350   3.220 -21.382  0.00  0.00    +0.046 A 
ATOM     18  C   UNL     1      -3.064   3.355 -21.517  0.00  0.00    +0.007 A 
ATOM     19  C   UNL     1      -2.563   3.696 -22.667  0.00  0.00    -0.040 A 
ATOM     20  C   UNL     1      -3.348   3.902 -23.682  0.00  0.00    +0.007 A 
ATOM     21  C   UNL     1      -4.634   3.767 -23.548  0.00  0.00    +0.046 A 
BRANCH  16  23
ATOM     22  C   UNL     1      -6.899   2.329 -21.531  0.00  0.00    +0.277 C 
ATOM     23  O   UNL     1      -6.421   3.291 -22.263  0.00  0.00    -0.495 OA
ENDBRANCH  16  23
ENDBRANCH  15  19
ENDBRANCH  13  15
ENDBRANCH   1  13
BRANCH   2  24
ATOM     24  O   UNL     1       0.121   1.138 -21.266  0.00  0.00    -0.506 OA
ATOM     25  H   UNL     1      -0.035   1.185 -20.343  0.00  0.00    +0.292 HD
ENDBRANCH   2  24
BRANCH  12  26
ATOM     26  O   UNL     1       1.256   4.330 -24.233  0.00  0.00    -0.494 OA
ATOM     27  C   UNL     1       1.264   3.948 -25.477  0.00  0.00    +0.277 C 
ENDBRANCH  12  26
TORSDOF 6
ENDMDL
MODEL 5
REMARK VINA RESULT:    -8.356      1.520      2.805
REMARK INTER + INTRA:         -11.066
REMARK INTER:                 -11.505
REMARK INTRA:                   0.440
REMARK UNBOUND:                -0.023
REMARK  Name = COc1ccc(CC(=O)c2c(O)cc3c(c2OC)CCC(C)(C)O3)cc1                        ZINC000248341351
REMARK  10 active torsions:
REMARK  status: ('A' for Active; 'I' for Inactive)
REMARK    1  A    between atoms: C_1  and  O_2
REMARK    2  A    between atoms: O_2  and  C_3
REMARK    3  A    between atoms: C_6  and  C_7
REMARK    4  A    between atoms: C_7  and  C_8
REMARK    5  A    between atoms: C_8  and  C_10
REMARK    6  A    between atoms: C_11  and  O_12
REMARK    7  A    between atoms: C_16  and  O_17
REMARK    8  A    between atoms: O_17  and  C_18
REMARK    9  A    between atoms: C_21  and  C_22
REMARK   10  A    between atoms: C_21  and  C_23
REMARK                            x       y       z     vdW  Elec       q    Type
REMARK                         _______ _______ _______ _____ _____    ______ ____
ROOT
ATOM      1  C   UNL     1       1.173   1.794 -22.934  0.00  0.00    +0.101 A 
ATOM      2  C   UNL     1       1.065   1.551 -21.661  0.00  0.00    +0.134 A 
ATOM      3  C   UNL     1      -0.062   1.769 -21.051  0.00  0.00    +0.092 A 
ATOM      4  C   UNL     1      -1.082   2.230 -21.713  0.00  0.00    +0.131 A 
ATOM      5  C   UNL     1      -0.973   2.473 -22.987  0.00  0.00    +0.037 A 
ATOM      6  C   UNL     1      -1.992   2.934 -23.650  0.00  0.00    +0.046 C 
ATOM      7  C   UNL     1      -3.119   3.152 -23.040  0.00  0.00    +0.052 C 
ATOM      8  C   UNL     1      -3.227   2.910 -21.767  0.00  0.00    +0.105 C 
ATOM      9  C   UNL     1      -3.753   2.816 -20.582  0.00  0.00    +0.055 C 
ATOM     10  C   UNL     1      -4.428   3.338 -22.018  0.00  0.00    +0.055 C 
ATOM     11  O   UNL     1      -2.208   2.449 -21.105  0.00  0.00    -0.486 OA
ATOM     12  C   UNL     1       0.155   2.254 -23.597  0.00  0.00    +0.141 A 
ENDROOT
BRANCH   1  13
ATOM     13  C   UNL     1       2.300   1.575 -23.543  0.00  0.00    +0.174 C 
ATOM     14  O   UNL     1       2.805   0.377 -23.567  0.00  0.00    -0.291 OA
BRANCH  13  15
ATOM     15  C   UNL     1       2.923   2.555 -24.130  0.00  0.00    +0.115 C 
BRANCH  15  19
ATOM     16  C   UNL     1       5.593   4.617 -22.173  0.00  0.00    +0.120 A 
ATOM     17  C   UNL     1       4.554   5.213 -22.681  0.00  0.00    +0.046 A 
ATOM     18  C   UNL     1       3.664   4.526 -23.333  0.00  0.00    +0.007 A 
ATOM     19  C   UNL     1       3.813   3.242 -23.478  0.00  0.00    -0.040 A 
ATOM     20  C   UNL     1       4.850   2.647 -22.971  0.00  0.00    +0.007 A 
ATOM     21  C   UNL     1       5.741   3.334 -22.318  0.00  0.00    +0.046 A 
BRANCH  16  23
ATOM     22  C   UNL     1       7.721   4.914 -21.504  0.00  0.00    +0.277 C 
ATOM     23  O   UNL     1       6.482   5.306 -21.521  0.00  0.00    -0.495 OA
ENDBRANCH  16  23
ENDBRANCH  15  19
ENDBRANCH  13  15
ENDBRANCH   1  13
BRANCH   2  24
ATOM     24  O   UNL     1       2.083   1.090 -20.998  0.00  0.00    -0.506 OA
ATOM     25  H   UNL     1       2.589   0.383 -21.348  0.00  0.00    +0.292 HD
ENDBRANCH   2  24
BRANCH  12  26
ATOM     26  O   UNL     1       0.263   2.497 -24.869  0.00  0.00    -0.494 OA
ATOM     27  C   UNL     1       0.174   3.718 -25.308  0.00  0.00    +0.277 C 
ENDBRANCH  12  26
TORSDOF 6
ENDMDL
MODEL 6
REMARK VINA RESULT:    -7.388      2.049      6.958
REMARK INTER + INTRA:          -9.787
REMARK INTER:                 -10.054
REMARK INTRA:                   0.268
REMARK UNBOUND:                -0.023
REMARK  Name = COc1ccc(CC(=O)c2c(O)cc3c(c2OC)CCC(C)(C)O3)cc1                        ZINC000248341351
REMARK  10 active torsions:
REMARK  status: ('A' for Active; 'I' for Inactive)
REMARK    1  A    between atoms: C_1  and  O_2
REMARK    2  A    between atoms: O_2  and  C_3
REMARK    3  A    between atoms: C_6  and  C_7
REMARK    4  A    between atoms: C_7  and  C_8
REMARK    5  A    between atoms: C_8  and  C_10
REMARK    6  A    between atoms: C_11  and  O_12
REMARK    7  A    between atoms: C_16  and  O_17
REMARK    8  A    between atoms: O_17  and  C_18
REMARK    9  A    between atoms: C_21  and  C_22
REMARK   10  A    between atoms: C_21  and  C_23
REMARK                            x       y       z     vdW  Elec       q    Type
REMARK                         _______ _______ _______ _____ _____    ______ ____
ROOT
ATOM      1  C   UNL     1       1.820   3.651 -24.334  0.00  0.00    +0.101 A 
ATOM      2  C   UNL     1       2.277   4.603 -23.577  0.00  0.00    +0.134 A 
ATOM      3  C   UNL     1       3.144   4.335 -22.647  0.00  0.00    +0.092 A 
ATOM      4  C   UNL     1       3.556   3.115 -22.473  0.00  0.00    +0.131 A 
ATOM      5  C   UNL     1       3.099   2.161 -23.231  0.00  0.00    +0.037 A 
ATOM      6  C   UNL     1       3.510   0.940 -23.059  0.00  0.00    +0.046 C 
ATOM      7  C   UNL     1       4.378   0.672 -22.129  0.00  0.00    +0.052 C 
ATOM      8  C   UNL     1       4.835   1.626 -21.371  0.00  0.00    +0.105 C 
ATOM      9  C   UNL     1       5.516   2.227 -20.441  0.00  0.00    +0.055 C 
ATOM     10  C   UNL     1       5.482   0.613 -20.875  0.00  0.00    +0.055 C 
ATOM     11  O   UNL     1       4.423   2.846 -21.544  0.00  0.00    -0.486 OA
ATOM     12  C   UNL     1       2.231   2.430 -24.162  0.00  0.00    +0.141 A 
ENDROOT
BRANCH   1  13
ATOM     13  C   UNL     1       0.953   3.919 -25.264  0.00  0.00    +0.174 C 
ATOM     14  O   UNL     1       1.310   4.610 -26.306  0.00  0.00    -0.291 OA
BRANCH  13  15
ATOM     15  C   UNL     1      -0.272   3.495 -25.153  0.00  0.00    +0.115 C 
BRANCH  15  19
ATOM     16  C   UNL     1      -2.098   3.689 -21.713  0.00  0.00    +0.120 A 
ATOM     17  C   UNL     1      -1.738   4.781 -22.321  0.00  0.00    +0.046 A 
ATOM     18  C   UNL     1      -1.130   4.716 -23.468  0.00  0.00    +0.007 A 
ATOM     19  C   UNL     1      -0.880   3.560 -24.007  0.00  0.00    -0.040 A 
ATOM     20  C   UNL     1      -1.239   2.469 -23.399  0.00  0.00    +0.007 A 
ATOM     21  C   UNL     1      -1.848   2.533 -22.252  0.00  0.00    +0.046 A 
BRANCH  16  23
ATOM     22  C   UNL     1      -3.709   2.966 -20.317  0.00  0.00    +0.277 C 
ATOM     23  O   UNL     1      -2.706   3.755 -20.566  0.00  0.00    -0.495 OA
ENDBRANCH  16  23
ENDBRANCH  15  19
ENDBRANCH  13  15
ENDBRANCH   1  13
BRANCH   2  24
ATOM     24  O   UNL     1       1.866   5.824 -23.750  0.00  0.00    -0.506 OA
ATOM     25  H   UNL     1       1.836   6.416 -23.023  0.00  0.00    +0.292 HD
ENDBRANCH   2  24
BRANCH  12  26
ATOM     26  O   UNL     1       1.775   1.477 -24.919  0.00  0.00    -0.494 OA
ATOM     27  C   UNL     1       2.398   1.164 -26.017  0.00  0.00    +0.277 C 
ENDBRANCH  12  26
TORSDOF 6
ENDMDL
