MODEL 1
REMARK VINA RESULT:    -9.768      0.000      0.000
REMARK INTER + INTRA:          -7.415
REMARK INTER:                 -11.517
REMARK INTRA:                   4.102
REMARK UNBOUND:                 4.065
REMARK  Name = COc1ccc2c3c1O[C@@H]1C(OC)(OC)CC[C@@H]4[C@H](C2)N(C)CC[C@@]341        ZINC000100393739
REMARK  7 active torsions:
REMARK  status: ('A' for Active; 'I' for Inactive)
REMARK    1  A    between atoms: C_1  and  O_2
REMARK    2  A    between atoms: O_2  and  C_3
REMARK    3  A    between atoms: C_11  and  O_12
REMARK    4  A    between atoms: C_11  and  O_14
REMARK    5  A    between atoms: O_12  and  C_13
REMARK    6  A    between atoms: O_14  and  C_15
REMARK    7  A    between atoms: N_21  and  C_22
REMARK                            x       y       z     vdW  Elec       q    Type
REMARK                         _______ _______ _______ _____ _____    ______ ____
ROOT
ATOM      1  C   UNL     1       1.425   1.836 -22.037  0.00  0.00    +0.162 A 
ATOM      2  C   UNL     1       2.081   1.918 -23.120  0.00  0.00    +0.050 A 
ATOM      3  C   UNL     1       1.527   2.316 -24.171  0.00  0.00    +0.008 A 
ATOM      4  C   UNL     1       0.313   2.637 -24.152  0.00  0.00    -0.035 A 
ATOM      5  C   UNL     1      -0.361   2.564 -23.087  0.00  0.00    +0.012 A 
ATOM      6  C   UNL     1      -1.572   2.885 -23.075  0.00  0.00    +0.054 C 
ATOM      7  C   UNL     1      -2.954   3.223 -22.936  0.00  0.00    +0.067 C 
ATOM      8  C   UNL     1      -3.608   3.676 -24.105  0.00  0.00    +0.132 C 
ATOM      9  N   UNL     1      -2.844   3.755 -25.294  0.00  0.00    +0.236 N 
ATOM     10  H   UNL     1      -3.266   4.075 -26.166  0.00  0.00    +0.203 HD
ATOM     11  C   UNL     1      -3.347   4.146 -26.374  0.00  0.00    +0.190 C 
ATOM     12  C   UNL     1      -1.471   3.366 -25.205  0.00  0.00    +0.072 C 
ATOM     13  C   UNL     1      -2.130   3.285 -24.124  0.00  0.00    +0.053 C 
ATOM     14  C   UNL     1      -3.356   3.610 -24.110  0.00  0.00    +0.015 C 
ATOM     15  C   UNL     1      -4.011   3.531 -23.042  0.00  0.00    +0.069 C 
ATOM     16  C   UNL     1      -3.457   3.129 -21.976  0.00  0.00    +0.208 C 
ATOM     17  C   UNL     1      -2.244   2.808 -21.993  0.00  0.00    +0.244 C 
ATOM     18  O   UNL     1      -1.056   2.301 -21.200  0.00  0.00    -0.479 OA
ATOM     19  C   UNL     1      -0.259   3.045 -25.222  0.00  0.00    +0.090 C 
ATOM     20  C   UNL     1       0.196   2.161 -22.023  0.00  0.00    +0.167 A 
ENDROOT
BRANCH   1  22
ATOM     21  C   UNL     1       3.190   1.090 -21.011  0.00  0.00    +0.277 C 
ATOM     22  O   UNL     1       1.983   1.436 -20.988  0.00  0.00    -0.491 OA
ENDBRANCH   1  22
BRANCH  16  23
ATOM     23  O   UNL     1      -4.618   3.338 -21.548  0.00  0.00    -0.349 OA
ATOM     24  C   UNL     1      -5.390   2.374 -21.332  0.00  0.00    +0.197 C 
ENDBRANCH  16  23
BRANCH  16  25
ATOM     25  O   UNL     1      -3.304   2.802 -20.775  0.00  0.00    -0.349 OA
ATOM     26  C   UNL     1      -3.306   3.681 -19.879  0.00  0.00    +0.197 C 
ENDBRANCH  16  25
TORSDOF 3
ENDMDL
MODEL 2
REMARK VINA RESULT:    -9.413      2.016      3.430
REMARK INTER + INTRA:          -6.999
REMARK INTER:                 -11.149
REMARK INTRA:                   4.151
REMARK UNBOUND:                 4.065
REMARK  Name = COc1ccc2c3c1O[C@@H]1C(OC)(OC)CC[C@@H]4[C@H](C2)N(C)CC[C@@]341        ZINC000100393739
REMARK  7 active torsions:
REMARK  status: ('A' for Active; 'I' for Inactive)
REMARK    1  A    between atoms: C_1  and  O_2
REMARK    2  A    between atoms: O_2  and  C_3
REMARK    3  A    between atoms: C_11  and  O_12
REMARK    4  A    between atoms: C_11  and  O_14
REMARK    5  A    between atoms: O_12  and  C_13
REMARK    6  A    between atoms: O_14  and  C_15
REMARK    7  A    between atoms: N_21  and  C_22
REMARK                            x       y       z     vdW  Elec       q    Type
REMARK                         _______ _______ _______ _____ _____    ______ ____
ROOT
ATOM      1  C   UNL     1       1.649   2.307 -23.778  0.00  0.00    +0.162 A 
ATOM      2  C   UNL     1       1.967   1.852 -22.637  0.00  0.00    +0.050 A 
ATOM      3  C   UNL     1       1.101   1.716 -21.742  0.00  0.00    +0.008 A 
ATOM      4  C   UNL     1      -0.091   2.031 -21.976  0.00  0.00    -0.035 A 
ATOM      5  C   UNL     1      -0.433   2.486 -23.103  0.00  0.00    +0.012 A 
ATOM      6  C   UNL     1      -1.624   2.799 -23.331  0.00  0.00    +0.054 C 
ATOM      7  C   UNL     1      -2.947   3.190 -23.708  0.00  0.00    +0.067 C 
ATOM      8  C   UNL     1      -3.947   3.048 -22.719  0.00  0.00    +0.132 C 
ATOM      9  N   UNL     1      -3.555   2.538 -21.459  0.00  0.00    +0.236 N 
ATOM     10  H   UNL     1      -4.236   2.415 -20.710  0.00  0.00    +0.203 HD
ATOM     11  C   UNL     1      -4.380   2.381 -20.527  0.00  0.00    +0.190 C 
ATOM     12  C   UNL     1      -2.173   2.210 -21.298  0.00  0.00    +0.072 C 
ATOM     13  C   UNL     1      -2.494   2.665 -22.438  0.00  0.00    +0.053 C 
ATOM     14  C   UNL     1      -3.701   2.983 -22.670  0.00  0.00    +0.015 C 
ATOM     15  C   UNL     1      -4.023   3.433 -23.796  0.00  0.00    +0.069 C 
ATOM     16  C   UNL     1      -3.152   3.573 -24.706  0.00  0.00    +0.208 C 
ATOM     17  C   UNL     1      -1.959   3.258 -24.473  0.00  0.00    +0.244 C 
ATOM     18  O   UNL     1      -0.546   3.164 -25.011  0.00  0.00    -0.479 OA
ATOM     19  C   UNL     1      -0.981   1.895 -21.066  0.00  0.00    +0.090 C 
ATOM     20  C   UNL     1       0.440   2.625 -24.010  0.00  0.00    +0.167 A 
ENDROOT
BRANCH   1  22
ATOM     21  C   UNL     1       3.728   2.221 -24.409  0.00  0.00    +0.277 C 
ATOM     22  O   UNL     1       2.519   2.441 -24.671  0.00  0.00    -0.491 OA
ENDBRANCH   1  22
BRANCH  16  23
ATOM     23  O   UNL     1      -4.167   3.984 -25.317  0.00  0.00    -0.349 OA
ATOM     24  C   UNL     1      -4.414   5.213 -25.370  0.00  0.00    +0.197 C 
ENDBRANCH  16  23
BRANCH  16  25
ATOM     25  O   UNL     1      -2.636   3.852 -25.814  0.00  0.00    -0.349 OA
ATOM     26  C   UNL     1      -3.125   3.385 -26.870  0.00  0.00    +0.197 C 
ENDBRANCH  16  25
TORSDOF 3
ENDMDL
MODEL 3
REMARK VINA RESULT:    -8.886      2.224      5.806
REMARK INTER + INTRA:          -6.379
REMARK INTER:                 -10.411
REMARK INTRA:                   4.031
REMARK UNBOUND:                 4.065
REMARK  Name = COc1ccc2c3c1O[C@@H]1C(OC)(OC)CC[C@@H]4[C@H](C2)N(C)CC[C@@]341        ZINC000100393739
REMARK  7 active torsions:
REMARK  status: ('A' for Active; 'I' for Inactive)
REMARK    1  A    between atoms: C_1  and  O_2
REMARK    2  A    between atoms: O_2  and  C_3
REMARK    3  A    between atoms: C_11  and  O_12
REMARK    4  A    between atoms: C_11  and  O_14
REMARK    5  A    between atoms: O_12  and  C_13
REMARK    6  A    between atoms: O_14  and  C_15
REMARK    7  A    between atoms: N_21  and  C_22
REMARK                            x       y       z     vdW  Elec       q    Type
REMARK                         _______ _______ _______ _____ _____    ______ ____
ROOT
ATOM      1  C   UNL     1      -4.106   3.699 -23.986  0.00  0.00    +0.162 A 
ATOM      2  C   UNL     1      -4.705   3.461 -22.894  0.00  0.00    +0.050 A 
ATOM      3  C   UNL     1      -4.079   3.004 -21.910  0.00  0.00    +0.008 A 
ATOM      4  C   UNL     1      -2.847   2.780 -22.006  0.00  0.00    -0.035 A 
ATOM      5  C   UNL     1      -2.227   3.009 -23.082  0.00  0.00    +0.012 A 
ATOM      6  C   UNL     1      -0.999   2.783 -23.171  0.00  0.00    +0.054 C 
ATOM      7  C   UNL     1       0.397   2.567 -23.395  0.00  0.00    +0.067 C 
ATOM      8  C   UNL     1       1.133   2.052 -22.302  0.00  0.00    +0.132 C 
ATOM      9  N   UNL     1       0.430   1.799 -21.100  0.00  0.00    +0.236 N 
ATOM     10  H   UNL     1       0.911   1.428 -20.281  0.00  0.00    +0.203 HD
ATOM     11  C   UNL     1       1.007   1.343 -20.085  0.00  0.00    +0.190 C 
ATOM     12  C   UNL     1      -0.970   2.090 -21.098  0.00  0.00    +0.072 C 
ATOM     13  C   UNL     1      -0.367   2.326 -22.189  0.00  0.00    +0.053 C 
ATOM     14  C   UNL     1       0.878   2.098 -22.281  0.00  0.00    +0.015 C 
ATOM     15  C   UNL     1       1.477   2.331 -23.359  0.00  0.00    +0.069 C 
ATOM     16  C   UNL     1       0.849   2.793 -24.358  0.00  0.00    +0.208 C 
ATOM     17  C   UNL     1      -0.382   3.018 -24.263  0.00  0.00    +0.244 C 
ATOM     18  O   UNL     1      -1.637   3.508 -24.957  0.00  0.00    -0.479 OA
ATOM     19  C   UNL     1      -2.201   2.314 -21.004  0.00  0.00    +0.090 C 
ATOM     20  C   UNL     1      -2.859   3.470 -24.079  0.00  0.00    +0.167 A 
ENDROOT
BRANCH   1  22
ATOM     21  C   UNL     1      -5.131   3.384 -25.878  0.00  0.00    +0.277 C 
ATOM     22  O   UNL     1      -4.737   4.156 -24.969  0.00  0.00    -0.491 OA
ENDBRANCH   1  22
BRANCH  16  23
ATOM     23  O   UNL     1       2.002   2.716 -24.847  0.00  0.00    -0.349 OA
ATOM     24  C   UNL     1       2.309   1.747 -25.582  0.00  0.00    +0.197 C 
ENDBRANCH  16  23
BRANCH  16  25
ATOM     25  O   UNL     1       0.621   3.224 -25.513  0.00  0.00    -0.349 OA
ATOM     26  C   UNL     1       1.158   4.288 -25.905  0.00  0.00    +0.197 C 
ENDBRANCH  16  25
TORSDOF 3
ENDMDL
MODEL 4
REMARK VINA RESULT:    -8.646      2.092      5.402
REMARK INTER + INTRA:          -6.097
REMARK INTER:                 -10.132
REMARK INTRA:                   4.035
REMARK UNBOUND:                 4.065
REMARK  Name = COc1ccc2c3c1O[C@@H]1C(OC)(OC)CC[C@@H]4[C@H](C2)N(C)CC[C@@]341        ZINC000100393739
REMARK  7 active torsions:
REMARK  status: ('A' for Active; 'I' for Inactive)
REMARK    1  A    between atoms: C_1  and  O_2
REMARK    2  A    between atoms: O_2  and  C_3
REMARK    3  A    between atoms: C_11  and  O_12
REMARK    4  A    between atoms: C_11  and  O_14
REMARK    5  A    between atoms: O_12  and  C_13
REMARK    6  A    between atoms: O_14  and  C_15
REMARK    7  A    between atoms: N_21  and  C_22
REMARK                            x       y       z     vdW  Elec       q    Type
REMARK                         _______ _______ _______ _____ _____    ______ ____
ROOT
ATOM      1  C   UNL     1      -4.173   3.060 -26.123  0.00  0.00    +0.162 A 
ATOM      2  C   UNL     1      -5.328   3.418 -25.740  0.00  0.00    +0.050 A 
ATOM      3  C   UNL     1      -5.561   3.626 -24.527  0.00  0.00    +0.008 A 
ATOM      4  C   UNL     1      -4.643   3.479 -23.683  0.00  0.00    -0.035 A 
ATOM      5  C   UNL     1      -3.485   3.123 -24.038  0.00  0.00    +0.012 A 
ATOM      6  C   UNL     1      -2.574   2.978 -23.191  0.00  0.00    +0.054 C 
ATOM      7  C   UNL     1      -1.456   2.780 -22.321  0.00  0.00    +0.067 C 
ATOM      8  C   UNL     1      -1.688   3.007 -20.945  0.00  0.00    +0.132 C 
ATOM      9  N   UNL     1      -2.988   3.405 -20.556  0.00  0.00    +0.236 N 
ATOM     10  H   UNL     1      -3.210   3.582 -19.576  0.00  0.00    +0.203 HD
ATOM     11  C   UNL     1      -3.277   3.627 -19.356  0.00  0.00    +0.190 C 
ATOM     12  C   UNL     1      -3.959   3.543 -21.597  0.00  0.00    +0.072 C 
ATOM     13  C   UNL     1      -2.802   3.185 -21.976  0.00  0.00    +0.053 C 
ATOM     14  C   UNL     1      -1.878   3.037 -21.119  0.00  0.00    +0.015 C 
ATOM     15  C   UNL     1      -0.733   2.683 -21.490  0.00  0.00    +0.069 C 
ATOM     16  C   UNL     1      -0.491   2.471 -22.716  0.00  0.00    +0.208 C 
ATOM     17  C   UNL     1      -1.407   2.618 -23.561  0.00  0.00    +0.244 C 
ATOM     18  O   UNL     1      -1.806   2.551 -25.021  0.00  0.00    -0.479 OA
ATOM     19  C   UNL     1      -4.875   3.690 -22.442  0.00  0.00    +0.090 C 
ATOM     20  C   UNL     1      -3.247   2.912 -25.264  0.00  0.00    +0.167 A 
ENDROOT
BRANCH   1  22
ATOM     21  C   UNL     1      -3.274   3.681 -28.002  0.00  0.00    +0.277 C 
ATOM     22  O   UNL     1      -3.944   2.852 -27.338  0.00  0.00    -0.491 OA
ENDBRANCH   1  22
BRANCH  16  23
ATOM     23  O   UNL     1       0.639   2.224 -22.229  0.00  0.00    -0.349 OA
ATOM     24  C   UNL     1       1.020   1.036 -22.099  0.00  0.00    +0.197 C 
ENDBRANCH  16  23
BRANCH  16  25
ATOM     25  O   UNL     1       0.134   2.177 -23.763  0.00  0.00    -0.349 OA
ATOM     26  C   UNL     1       1.112   2.873 -24.127  0.00  0.00    +0.197 C 
ENDBRANCH  16  25
TORSDOF 3
ENDMDL
MODEL 5
REMARK VINA RESULT:    -8.007      2.609      6.095
REMARK INTER + INTRA:          -5.346
REMARK INTER:                  -9.614
REMARK INTRA:                   4.268
REMARK UNBOUND:                 4.065
REMARK  Name = COc1ccc2c3c1O[C@@H]1C(OC)(OC)CC[C@@H]4[C@H](C2)N(C)CC[C@@]341        ZINC000100393739
REMARK  7 active torsions:
REMARK  status: ('A' for Active; 'I' for Inactive)
REMARK    1  A    between atoms: C_1  and  O_2
REMARK    2  A    between atoms: O_2  and  C_3
REMARK    3  A    between atoms: C_11  and  O_12
REMARK    4  A    between atoms: C_11  and  O_14
REMARK    5  A    between atoms: O_12  and  C_13
REMARK    6  A    between atoms: O_14  and  C_15
REMARK    7  A    between atoms: N_21  and  C_22
REMARK                            x       y       z     vdW  Elec       q    Type
REMARK                         _______ _______ _______ _____ _____    ______ ____
ROOT
ATOM      1  C   UNL     1      -1.452   3.347 -23.318  0.00  0.00    +0.162 A 
ATOM      2  C   UNL     1      -1.572   4.581 -23.587  0.00  0.00    +0.050 A 
ATOM      3  C   UNL     1      -0.566   5.327 -23.611  0.00  0.00    +0.008 A 
ATOM      4  C   UNL     1       0.570   4.850 -23.368  0.00  0.00    -0.035 A 
ATOM      5  C   UNL     1       0.715   3.625 -23.098  0.00  0.00    +0.012 A 
ATOM      6  C   UNL     1       1.850   3.155 -22.856  0.00  0.00    +0.054 C 
ATOM      7  C   UNL     1       3.090   2.504 -22.564  0.00  0.00    +0.067 C 
ATOM      8  C   UNL     1       4.244   3.321 -22.584  0.00  0.00    +0.132 C 
ATOM      9  N   UNL     1       4.072   4.692 -22.887  0.00  0.00    +0.236 N 
ATOM     10  H   UNL     1       4.871   5.326 -22.915  0.00  0.00    +0.203 HD
ATOM     11  C   UNL     1       5.043   5.484 -22.925  0.00  0.00    +0.190 C 
ATOM     12  C   UNL     1       2.737   5.132 -23.148  0.00  0.00    +0.072 C 
ATOM     13  C   UNL     1       2.860   3.898 -22.879  0.00  0.00    +0.053 C 
ATOM     14  C   UNL     1       4.010   3.420 -22.634  0.00  0.00    +0.015 C 
ATOM     15  C   UNL     1       4.135   2.200 -22.368  0.00  0.00    +0.069 C 
ATOM     16  C   UNL     1       3.122   1.440 -22.342  0.00  0.00    +0.208 C 
ATOM     17  C   UNL     1       1.986   1.916 -22.585  0.00  0.00    +0.244 C 
ATOM     18  O   UNL     1       0.501   1.644 -22.719  0.00  0.00    -0.479 OA
ATOM     19  C   UNL     1       1.602   5.607 -23.391  0.00  0.00    +0.090 C 
ATOM     20  C   UNL     1      -0.301   2.868 -23.073  0.00  0.00    +0.167 A 
ENDROOT
BRANCH   1  22
ATOM     21  C   UNL     1      -3.599   3.094 -23.088  0.00  0.00    +0.277 C 
ATOM     22  O   UNL     1      -2.462   2.603 -23.295  0.00  0.00    -0.491 OA
ENDBRANCH   1  22
BRANCH  16  23
ATOM     23  O   UNL     1       4.019   0.610 -22.057  0.00  0.00    -0.349 OA
ATOM     24  C   UNL     1       4.176   0.240 -20.869  0.00  0.00    +0.197 C 
ENDBRANCH  16  23
BRANCH  16  25
ATOM     25  O   UNL     1       2.425   0.405 -22.219  0.00  0.00    -0.349 OA
ATOM     26  C   UNL     1       2.375  -0.434 -23.150  0.00  0.00    +0.197 C 
ENDBRANCH  16  25
TORSDOF 3
ENDMDL
MODEL 6
REMARK VINA RESULT:    -7.824      3.814      5.466
REMARK INTER + INTRA:          -5.130
REMARK INTER:                  -9.257
REMARK INTRA:                   4.126
REMARK UNBOUND:                 4.065
REMARK  Name = COc1ccc2c3c1O[C@@H]1C(OC)(OC)CC[C@@H]4[C@H](C2)N(C)CC[C@@]341        ZINC000100393739
REMARK  7 active torsions:
REMARK  status: ('A' for Active; 'I' for Inactive)
REMARK    1  A    between atoms: C_1  and  O_2
REMARK    2  A    between atoms: O_2  and  C_3
REMARK    3  A    between atoms: C_11  and  O_12
REMARK    4  A    between atoms: C_11  and  O_14
REMARK    5  A    between atoms: O_12  and  C_13
REMARK    6  A    between atoms: O_14  and  C_15
REMARK    7  A    between atoms: N_21  and  C_22
REMARK                            x       y       z     vdW  Elec       q    Type
REMARK                         _______ _______ _______ _____ _____    ______ ____
ROOT
ATOM      1  C   UNL     1       4.374   6.791 -22.315  0.00  0.00    +0.162 A 
ATOM      2  C   UNL     1       5.543   6.299 -22.284  0.00  0.00    +0.050 A 
ATOM      3  C   UNL     1       5.747   5.118 -22.650  0.00  0.00    +0.008 A 
ATOM      4  C   UNL     1       4.786   4.416 -23.050  0.00  0.00    -0.035 A 
ATOM      5  C   UNL     1       3.613   4.882 -23.090  0.00  0.00    +0.012 A 
ATOM      6  C   UNL     1       2.659   4.177 -23.490  0.00  0.00    +0.054 C 
ATOM      7  C   UNL     1       1.493   3.472 -23.926  0.00  0.00    +0.067 C 
ATOM      8  C   UNL     1       1.691   2.136 -24.345  0.00  0.00    +0.132 C 
ATOM      9  N   UNL     1       3.008   1.622 -24.297  0.00  0.00    +0.236 N 
ATOM     10  H   UNL     1       3.207   0.665 -24.588  0.00  0.00    +0.203 HD
ATOM     11  C   UNL     1       3.270   0.447 -24.651  0.00  0.00    +0.190 C 
ATOM     12  C   UNL     1       4.029   2.506 -23.825  0.00  0.00    +0.072 C 
ATOM     13  C   UNL     1       2.858   2.994 -23.857  0.00  0.00    +0.053 C 
ATOM     14  C   UNL     1       1.890   2.280 -24.263  0.00  0.00    +0.015 C 
ATOM     15  C   UNL     1       0.731   2.760 -24.296  0.00  0.00    +0.069 C 
ATOM     16  C   UNL     1       0.518   3.954 -23.927  0.00  0.00    +0.208 C 
ATOM     17  C   UNL     1       1.478   4.657 -23.527  0.00  0.00    +0.244 C 
ATOM     18  O   UNL     1       1.926   6.004 -22.995  0.00  0.00    -0.479 OA
ATOM     19  C   UNL     1       4.987   3.209 -23.425  0.00  0.00    +0.090 C 
ATOM     20  C   UNL     1       3.404   6.076 -22.721  0.00  0.00    +0.167 A 
ENDROOT
BRANCH   1  22
ATOM     21  C   UNL     1       4.504   8.337 -20.792  0.00  0.00    +0.277 C 
ATOM     22  O   UNL     1       4.174   7.973 -21.948  0.00  0.00    -0.491 OA
ENDBRANCH   1  22
BRANCH  16  23
ATOM     23  O   UNL     1      -0.649   3.615 -24.239  0.00  0.00    -0.349 OA
ATOM     24  C   UNL     1      -1.081   3.845 -25.394  0.00  0.00    +0.197 C 
ENDBRANCH  16  23
BRANCH  16  25
ATOM     25  O   UNL     1      -0.090   5.020 -23.669  0.00  0.00    -0.349 OA
ATOM     26  C   UNL     1      -1.034   5.020 -22.843  0.00  0.00    +0.197 C 
ENDBRANCH  16  25
TORSDOF 3
ENDMDL
MODEL 7
REMARK VINA RESULT:    -7.546      3.540      7.481
REMARK INTER + INTRA:          -4.804
REMARK INTER:                  -8.855
REMARK INTRA:                   4.051
REMARK UNBOUND:                 4.065
REMARK  Name = COc1ccc2c3c1O[C@@H]1C(OC)(OC)CC[C@@H]4[C@H](C2)N(C)CC[C@@]341        ZINC000100393739
REMARK  7 active torsions:
REMARK  status: ('A' for Active; 'I' for Inactive)
REMARK    1  A    between atoms: C_1  and  O_2
REMARK    2  A    between atoms: O_2  and  C_3
REMARK    3  A    between atoms: C_11  and  O_12
REMARK    4  A    between atoms: C_11  and  O_14
REMARK    5  A    between atoms: O_12  and  C_13
REMARK    6  A    between atoms: O_14  and  C_15
REMARK    7  A    between atoms: N_21  and  C_22
REMARK                            x       y       z     vdW  Elec       q    Type
REMARK                         _______ _______ _______ _____ _____    ______ ____
ROOT
ATOM      1  C   UNL     1       0.376   3.703 -23.431  0.00  0.00    +0.162 A 
ATOM      2  C   UNL     1      -0.275   2.675 -23.073  0.00  0.00    +0.050 A 
ATOM      3  C   UNL     1       0.309   1.711 -22.525  0.00  0.00    +0.008 A 
ATOM      4  C   UNL     1       1.547   1.764 -22.327  0.00  0.00    -0.035 A 
ATOM      5  C   UNL     1       2.217   2.776 -22.674  0.00  0.00    +0.012 A 
ATOM      6  C   UNL     1       3.453   2.823 -22.474  0.00  0.00    +0.054 C 
ATOM      7  C   UNL     1       4.862   2.993 -22.299  0.00  0.00    +0.067 C 
ATOM      8  C   UNL     1       5.549   1.922 -21.683  0.00  0.00    +0.132 C 
ATOM      9  N   UNL     1       4.791   0.791 -21.298  0.00  0.00    +0.236 N 
ATOM     10  H   UNL     1       5.235  -0.009 -20.849  0.00  0.00    +0.203 HD
ATOM     11  C   UNL     1       5.322  -0.201 -20.746  0.00  0.00    +0.190 C 
ATOM     12  C   UNL     1       3.387   0.834 -21.569  0.00  0.00    +0.072 C 
ATOM     13  C   UNL     1       4.041   1.861 -21.925  0.00  0.00    +0.053 C 
ATOM     14  C   UNL     1       5.293   1.910 -21.723  0.00  0.00    +0.015 C 
ATOM     15  C   UNL     1       5.943   2.925 -22.074  0.00  0.00    +0.069 C 
ATOM     16  C   UNL     1       5.359   3.903 -22.629  0.00  0.00    +0.208 C 
ATOM     17  C   UNL     1       4.121   3.851 -22.828  0.00  0.00    +0.244 C 
ATOM     18  O   UNL     1       2.895   4.556 -23.372  0.00  0.00    -0.479 OA
ATOM     19  C   UNL     1       2.150   0.783 -21.767  0.00  0.00    +0.090 C 
ATOM     20  C   UNL     1       1.630   3.753 -23.229  0.00  0.00    +0.167 A 
ENDROOT
BRANCH   1  22
ATOM     21  C   UNL     1      -1.360   5.002 -23.597  0.00  0.00    +0.277 C 
ATOM     22  O   UNL     1      -0.212   4.666 -23.979  0.00  0.00    -0.491 OA
ENDBRANCH   1  22
BRANCH  16  23
ATOM     23  O   UNL     1       6.537   4.335 -22.618  0.00  0.00    -0.349 OA
ATOM     24  C   UNL     1       7.209   4.354 -23.677  0.00  0.00    +0.197 C 
ENDBRANCH  16  23
BRANCH  16  25
ATOM     25  O   UNL     1       5.183   5.018 -23.175  0.00  0.00    -0.349 OA
ATOM     26  C   UNL     1       5.427   6.073 -22.541  0.00  0.00    +0.197 C 
ENDBRANCH  16  25
TORSDOF 3
ENDMDL
MODEL 8
REMARK VINA RESULT:    -7.268      4.812      7.685
REMARK INTER + INTRA:          -4.478
REMARK INTER:                  -8.641
REMARK INTRA:                   4.163
REMARK UNBOUND:                 4.065
REMARK  Name = COc1ccc2c3c1O[C@@H]1C(OC)(OC)CC[C@@H]4[C@H](C2)N(C)CC[C@@]341        ZINC000100393739
REMARK  7 active torsions:
REMARK  status: ('A' for Active; 'I' for Inactive)
REMARK    1  A    between atoms: C_1  and  O_2
REMARK    2  A    between atoms: O_2  and  C_3
REMARK    3  A    between atoms: C_11  and  O_12
REMARK    4  A    between atoms: C_11  and  O_14
REMARK    5  A    between atoms: O_12  and  C_13
REMARK    6  A    between atoms: O_14  and  C_15
REMARK    7  A    between atoms: N_21  and  C_22
REMARK                            x       y       z     vdW  Elec       q    Type
REMARK                         _______ _______ _______ _____ _____    ______ ____
ROOT
ATOM      1  C   UNL     1       0.833   4.256 -23.729  0.00  0.00    +0.162 A 
ATOM      2  C   UNL     1       0.897   3.091 -24.226  0.00  0.00    +0.050 A 
ATOM      3  C   UNL     1       1.998   2.501 -24.327  0.00  0.00    +0.008 A 
ATOM      4  C   UNL     1       3.046   3.068 -23.932  0.00  0.00    -0.035 A 
ATOM      5  C   UNL     1       3.009   4.228 -23.434  0.00  0.00    +0.012 A 
ATOM      6  C   UNL     1       4.058   4.788 -23.042  0.00  0.00    +0.054 C 
ATOM      7  C   UNL     1       5.184   5.528 -22.561  0.00  0.00    +0.067 C 
ATOM      8  C   UNL     1       6.441   4.889 -22.661  0.00  0.00    +0.132 C 
ATOM      9  N   UNL     1       6.473   3.590 -23.221  0.00  0.00    +0.236 N 
ATOM     10  H   UNL     1       7.353   3.083 -23.316  0.00  0.00    +0.203 HD
ATOM     11  C   UNL     1       7.547   2.954 -23.345  0.00  0.00    +0.190 C 
ATOM     12  C   UNL     1       5.223   3.036 -23.638  0.00  0.00    +0.072 C 
ATOM     13  C   UNL     1       5.162   4.202 -23.140  0.00  0.00    +0.053 C 
ATOM     14  C   UNL     1       6.225   4.771 -22.743  0.00  0.00    +0.015 C 
ATOM     15  C   UNL     1       6.169   5.924 -22.250  0.00  0.00    +0.069 C 
ATOM     16  C   UNL     1       5.058   6.526 -22.145  0.00  0.00    +0.208 C 
ATOM     17  C   UNL     1       4.010   5.960 -22.540  0.00  0.00    +0.244 C 
ATOM     18  O   UNL     1       2.507   6.055 -22.711  0.00  0.00    -0.479 OA
ATOM     19  C   UNL     1       4.174   2.471 -24.032  0.00  0.00    +0.090 C 
ATOM     20  C   UNL     1       1.897   4.827 -23.331  0.00  0.00    +0.167 A 
ENDROOT
BRANCH   1  22
ATOM     21  C   UNL     1      -0.896   4.828 -22.541  0.00  0.00    +0.277 C 
ATOM     22  O   UNL     1      -0.271   4.843 -23.630  0.00  0.00    -0.491 OA
ENDBRANCH   1  22
BRANCH  16  23
ATOM     23  O   UNL     1       5.820   7.396 -21.660  0.00  0.00    -0.349 OA
ATOM     24  C   UNL     1       5.934   7.506 -20.415  0.00  0.00    +0.197 C 
ENDBRANCH  16  23
BRANCH  16  25
ATOM     25  O   UNL     1       4.220   7.418 -21.876  0.00  0.00    -0.349 OA
ATOM     26  C   UNL     1       4.447   8.610 -22.194  0.00  0.00    +0.197 C 
ENDBRANCH  16  25
TORSDOF 3
ENDMDL
MODEL 9
REMARK VINA RESULT:    -6.818      5.972      8.338
REMARK INTER + INTRA:          -3.949
REMARK INTER:                  -8.014
REMARK INTRA:                   4.065
REMARK UNBOUND:                 4.065
REMARK  Name = COc1ccc2c3c1O[C@@H]1C(OC)(OC)CC[C@@H]4[C@H](C2)N(C)CC[C@@]341        ZINC000100393739
REMARK  7 active torsions:
REMARK  status: ('A' for Active; 'I' for Inactive)
REMARK    1  A    between atoms: C_1  and  O_2
REMARK    2  A    between atoms: O_2  and  C_3
REMARK    3  A    between atoms: C_11  and  O_12
REMARK    4  A    between atoms: C_11  and  O_14
REMARK    5  A    between atoms: O_12  and  C_13
REMARK    6  A    between atoms: O_14  and  C_15
REMARK    7  A    between atoms: N_21  and  C_22
REMARK                            x       y       z     vdW  Elec       q    Type
REMARK                         _______ _______ _______ _____ _____    ______ ____
ROOT
ATOM      1  C   UNL     1       5.007   8.651 -21.201  0.00  0.00    +0.162 A 
ATOM      2  C   UNL     1       6.233   8.948 -21.067  0.00  0.00    +0.050 A 
ATOM      3  C   UNL     1       7.126   8.150 -21.436  0.00  0.00    +0.008 A 
ATOM      4  C   UNL     1       6.804   7.048 -21.943  0.00  0.00    -0.035 A 
ATOM      5  C   UNL     1       5.591   6.728 -22.087  0.00  0.00    +0.012 A 
ATOM      6  C   UNL     1       5.277   5.627 -22.594  0.00  0.00    +0.054 C 
ATOM      7  C   UNL     1       4.795   4.403 -23.156  0.00  0.00    +0.067 C 
ATOM      8  C   UNL     1       5.779   3.481 -23.582  0.00  0.00    +0.132 C 
ATOM      9  N   UNL     1       7.136   3.847 -23.416  0.00  0.00    +0.236 N 
ATOM     10  H   UNL     1       7.886   3.220 -23.707  0.00  0.00    +0.203 HD
ATOM     11  C   UNL     1       8.070   3.088 -23.768  0.00  0.00    +0.190 C 
ATOM     12  C   UNL     1       7.392   5.126 -22.829  0.00  0.00    +0.072 C 
ATOM     13  C   UNL     1       6.167   4.825 -22.964  0.00  0.00    +0.053 C 
ATOM     14  C   UNL     1       5.847   3.709 -23.477  0.00  0.00    +0.015 C 
ATOM     15  C   UNL     1       4.636   3.409 -23.613  0.00  0.00    +0.069 C 
ATOM     16  C   UNL     1       3.728   4.211 -23.242  0.00  0.00    +0.208 C 
ATOM     17  C   UNL     1       4.048   5.314 -22.735  0.00  0.00    +0.244 C 
ATOM     18  O   UNL     1       3.567   6.619 -22.133  0.00  0.00    -0.479 OA
ATOM     19  C   UNL     1       7.711   6.228 -22.322  0.00  0.00    +0.090 C 
ATOM     20  C   UNL     1       4.686   7.533 -21.715  0.00  0.00    +0.167 A 
ENDROOT
BRANCH   1  22
ATOM     21  C   UNL     1       4.161  10.654 -21.196  0.00  0.00    +0.277 C 
ATOM     22  O   UNL     1       4.117   9.453 -20.831  0.00  0.00    -0.491 OA
ENDBRANCH   1  22
BRANCH  16  23
ATOM     23  O   UNL     1       3.019   3.271 -23.673  0.00  0.00    -0.349 OA
ATOM     24  C   UNL     1       2.444   2.498 -22.869  0.00  0.00    +0.197 C 
ENDBRANCH  16  23
BRANCH  16  25
ATOM     25  O   UNL     1       2.588   4.685 -23.021  0.00  0.00    -0.349 OA
ATOM     26  C   UNL     1       1.783   4.851 -23.969  0.00  0.00    +0.197 C 
ENDBRANCH  16  25
TORSDOF 3
ENDMDL
