MODEL 1
REMARK VINA RESULT:   -10.213      0.000      0.000
REMARK INTER + INTRA:         -13.101
REMARK INTER:                 -12.211
REMARK INTRA:                  -0.889
REMARK UNBOUND:                 0.694
REMARK  Name = ZINC000001668160
REMARK  10 active torsions:
REMARK  status: ('A' for Active; 'I' for Inactive)
REMARK    1  A    between atoms: C_1  and  O_2
REMARK    2  A    between atoms: O_2  and  C_3
REMARK    3  A    between atoms: C_6  and  C_7
REMARK    4  A    between atoms: C_11  and  C_12
REMARK    5  A    between atoms: C_15  and  O_16
REMARK    6  A    between atoms: O_16  and  C_17
REMARK    7  A    between atoms: C_18  and  O_19
REMARK    8  A    between atoms: O_19  and  C_20
REMARK    9  A    between atoms: C_26  and  O_27
REMARK   10  A    between atoms: O_27  and  C_28
REMARK                            x       y       z     vdW  Elec       q    Type
REMARK                         _______ _______ _______ _____ _____    ______ ____
ROOT
ATOM      1  C   UNL     1       2.346   4.184 -23.311  0.00  0.00    +0.154 C 
ATOM      2  O   UNL     1       1.669   5.197 -23.763  0.00  0.00    -0.371 OA
ATOM      3  C   UNL     1       0.408   4.961 -23.561  0.00  0.00    +0.167 C 
ATOM      4  C   UNL     1       0.303   3.801 -22.984  0.00  0.00    +0.056 C 
ATOM      5  C   UNL     1      -0.541   2.937 -22.501  0.00  0.00    +0.154 C 
ATOM      6  O   UNL     1       0.137   1.925 -22.049  0.00  0.00    -0.371 OA
ATOM      7  C   UNL     1       1.398   2.161 -22.251  0.00  0.00    +0.167 C 
ATOM      8  C   UNL     1       1.503   3.321 -22.829  0.00  0.00    +0.056 C 
ENDROOT
BRANCH   5   9
ATOM      9  C   UNL     1      -1.833   3.066 -22.477  0.00  0.00    -0.015 A 
ATOM     10  C   UNL     1      -2.473   2.985 -21.347  0.00  0.00    +0.010 A 
ATOM     11  C   UNL     1      -3.767   3.113 -21.323  0.00  0.00    +0.050 A 
ATOM     12  C   UNL     1      -4.420   3.322 -22.427  0.00  0.00    +0.162 A 
ATOM     13  C   UNL     1      -3.781   3.403 -23.556  0.00  0.00    +0.162 A 
ATOM     14  C   UNL     1      -2.487   3.275 -23.580  0.00  0.00    +0.055 A 
BRANCH  13  15
ATOM     15  O   UNL     1      -4.434   3.612 -24.661  0.00  0.00    -0.491 OA
ATOM     16  C   UNL     1      -3.880   3.337 -25.804  0.00  0.00    +0.277 C 
ENDBRANCH  13  15
BRANCH  12  17
ATOM     17  O   UNL     1      -5.714   3.451 -22.403  0.00  0.00    -0.491 OA
ATOM     18  C   UNL     1      -6.434   2.635 -21.691  0.00  0.00    +0.277 C 
ENDBRANCH  12  17
ENDBRANCH   5   9
BRANCH   1  22
ATOM     19  C   UNL     1       6.226   3.800 -23.386  0.00  0.00    +0.162 A 
ATOM     20  C   UNL     1       5.468   2.820 -23.780  0.00  0.00    +0.050 A 
ATOM     21  C   UNL     1       4.174   2.948 -23.755  0.00  0.00    +0.010 A 
ATOM     22  C   UNL     1       3.639   4.056 -23.336  0.00  0.00    -0.015 A 
ATOM     23  C   UNL     1       4.398   5.036 -22.942  0.00  0.00    +0.055 A 
ATOM     24  C   UNL     1       5.691   4.908 -22.967  0.00  0.00    +0.162 A 
BRANCH  19  26
ATOM     25  C   UNL     1       8.133   3.493 -24.543  0.00  0.00    +0.277 C 
ATOM     26  O   UNL     1       7.520   3.672 -23.411  0.00  0.00    -0.491 OA
ENDBRANCH  19  26
BRANCH  24  27
ATOM     27  O   UNL     1       6.448   5.889 -22.573  0.00  0.00    -0.491 OA
ATOM     28  C   UNL     1       5.961   6.817 -21.804  0.00  0.00    +0.277 C 
ENDBRANCH  24  27
ENDBRANCH   1  22
TORSDOF 6
ENDMDL
MODEL 2
REMARK VINA RESULT:   -10.190      0.209      8.953
REMARK INTER + INTRA:         -13.070
REMARK INTER:                 -12.217
REMARK INTRA:                  -0.853
REMARK UNBOUND:                 0.694
REMARK  Name = ZINC000001668160
REMARK  10 active torsions:
REMARK  status: ('A' for Active; 'I' for Inactive)
REMARK    1  A    between atoms: C_1  and  O_2
REMARK    2  A    between atoms: O_2  and  C_3
REMARK    3  A    between atoms: C_6  and  C_7
REMARK    4  A    between atoms: C_11  and  C_12
REMARK    5  A    between atoms: C_15  and  O_16
REMARK    6  A    between atoms: O_16  and  C_17
REMARK    7  A    between atoms: C_18  and  O_19
REMARK    8  A    between atoms: O_19  and  C_20
REMARK    9  A    between atoms: C_26  and  O_27
REMARK   10  A    between atoms: O_27  and  C_28
REMARK                            x       y       z     vdW  Elec       q    Type
REMARK                         _______ _______ _______ _____ _____    ______ ____
ROOT
ATOM      1  C   UNL     1      -0.716   2.944 -22.578  0.00  0.00    +0.154 C 
ATOM      2  O   UNL     1      -0.039   1.907 -22.182  0.00  0.00    -0.371 OA
ATOM      3  C   UNL     1       1.223   2.155 -22.368  0.00  0.00    +0.167 C 
ATOM      4  C   UNL     1       1.328   3.345 -22.880  0.00  0.00    +0.056 C 
ATOM      5  C   UNL     1       2.173   4.234 -23.311  0.00  0.00    +0.154 C 
ATOM      6  O   UNL     1       1.496   5.271 -23.707  0.00  0.00    -0.371 OA
ATOM      7  C   UNL     1       0.234   5.023 -23.521  0.00  0.00    +0.167 C 
ATOM      8  C   UNL     1       0.129   3.833 -23.009  0.00  0.00    +0.056 C 
ENDROOT
BRANCH   5   9
ATOM      9  C   UNL     1       3.465   4.108 -23.341  0.00  0.00    -0.015 A 
ATOM     10  C   UNL     1       4.001   3.013 -23.795  0.00  0.00    +0.010 A 
ATOM     11  C   UNL     1       5.295   2.887 -23.825  0.00  0.00    +0.050 A 
ATOM     12  C   UNL     1       6.052   3.855 -23.401  0.00  0.00    +0.162 A 
ATOM     13  C   UNL     1       5.517   4.949 -22.947  0.00  0.00    +0.162 A 
ATOM     14  C   UNL     1       4.224   5.075 -22.917  0.00  0.00    +0.055 A 
BRANCH  13  15
ATOM     15  O   UNL     1       6.274   5.917 -22.523  0.00  0.00    -0.491 OA
ATOM     16  C   UNL     1       5.783   6.830 -21.738  0.00  0.00    +0.277 C 
ENDBRANCH  13  15
BRANCH  12  17
ATOM     17  O   UNL     1       7.346   3.729 -23.431  0.00  0.00    -0.491 OA
ATOM     18  C   UNL     1       7.950   3.495 -24.558  0.00  0.00    +0.277 C 
ENDBRANCH  12  17
ENDBRANCH   5   9
BRANCH   1  22
ATOM     19  C   UNL     1      -4.595   3.323 -22.488  0.00  0.00    +0.162 A 
ATOM     20  C   UNL     1      -3.949   3.001 -21.407  0.00  0.00    +0.050 A 
ATOM     21  C   UNL     1      -2.655   2.874 -21.437  0.00  0.00    +0.010 A 
ATOM     22  C   UNL     1      -2.008   3.070 -22.548  0.00  0.00    -0.015 A 
ATOM     23  C   UNL     1      -2.655   3.393 -23.628  0.00  0.00    +0.055 A 
ATOM     24  C   UNL     1      -3.949   3.519 -23.599  0.00  0.00    +0.162 A 
BRANCH  19  26
ATOM     25  C   UNL     1      -6.600   2.680 -21.689  0.00  0.00    +0.277 C 
ATOM     26  O   UNL     1      -5.889   3.450 -22.459  0.00  0.00    -0.491 OA
ENDBRANCH  19  26
BRANCH  24  27
ATOM     27  O   UNL     1      -4.595   3.842 -24.680  0.00  0.00    -0.491 OA
ATOM     28  C   UNL     1      -4.291   3.277 -25.811  0.00  0.00    +0.277 C 
ENDBRANCH  24  27
ENDBRANCH   1  22
TORSDOF 6
ENDMDL
MODEL 3
REMARK VINA RESULT:   -10.128      1.220      1.882
REMARK INTER + INTRA:         -12.987
REMARK INTER:                 -12.401
REMARK INTRA:                  -0.586
REMARK UNBOUND:                 0.694
REMARK  Name = ZINC000001668160
REMARK  10 active torsions:
REMARK  status: ('A' for Active; 'I' for Inactive)
REMARK    1  A    between atoms: C_1  and  O_2
REMARK    2  A    between atoms: O_2  and  C_3
REMARK    3  A    between atoms: C_6  and  C_7
REMARK    4  A    between atoms: C_11  and  C_12
REMARK    5  A    between atoms: C_15  and  O_16
REMARK    6  A    between atoms: O_16  and  C_17
REMARK    7  A    between atoms: C_18  and  O_19
REMARK    8  A    between atoms: O_19  and  C_20
REMARK    9  A    between atoms: C_26  and  O_27
REMARK   10  A    between atoms: O_27  and  C_28
REMARK                            x       y       z     vdW  Elec       q    Type
REMARK                         _______ _______ _______ _____ _____    ______ ____
ROOT
ATOM      1  C   UNL     1       2.038   3.680 -22.906  0.00  0.00    +0.154 C 
ATOM      2  O   UNL     1       1.447   4.777 -23.276  0.00  0.00    -0.371 OA
ATOM      3  C   UNL     1       0.167   4.615 -23.125  0.00  0.00    +0.167 C 
ATOM      4  C   UNL     1      -0.036   3.418 -22.661  0.00  0.00    +0.056 C 
ATOM      5  C   UNL     1      -0.952   2.577 -22.281  0.00  0.00    +0.154 C 
ATOM      6  O   UNL     1      -0.361   1.481 -21.911  0.00  0.00    -0.371 OA
ATOM      7  C   UNL     1       0.919   1.642 -22.062  0.00  0.00    +0.167 C 
ATOM      8  C   UNL     1       1.122   2.840 -22.526  0.00  0.00    +0.056 C 
ENDROOT
BRANCH   5   9
ATOM      9  C   UNL     1      -2.233   2.796 -22.273  0.00  0.00    -0.015 A 
ATOM     10  C   UNL     1      -2.905   2.681 -21.166  0.00  0.00    +0.010 A 
ATOM     11  C   UNL     1      -4.187   2.901 -21.158  0.00  0.00    +0.050 A 
ATOM     12  C   UNL     1      -4.795   3.235 -22.257  0.00  0.00    +0.162 A 
ATOM     13  C   UNL     1      -4.123   3.350 -23.364  0.00  0.00    +0.162 A 
ATOM     14  C   UNL     1      -2.842   3.131 -23.371  0.00  0.00    +0.055 A 
BRANCH  13  15
ATOM     15  O   UNL     1      -4.732   3.685 -24.463  0.00  0.00    -0.491 OA
ATOM     16  C   UNL     1      -4.076   4.285 -25.412  0.00  0.00    +0.277 C 
ENDBRANCH  13  15
BRANCH  12  17
ATOM     17  O   UNL     1      -6.077   3.454 -22.250  0.00  0.00    -0.491 OA
ATOM     18  C   UNL     1      -6.877   2.613 -21.663  0.00  0.00    +0.277 C 
ENDBRANCH  12  17
ENDBRANCH   5   9
BRANCH   1  22
ATOM     19  C   UNL     1       5.881   3.022 -22.930  0.00  0.00    +0.162 A 
ATOM     20  C   UNL     1       5.415   4.167 -23.333  0.00  0.00    +0.050 A 
ATOM     21  C   UNL     1       4.133   4.387 -23.325  0.00  0.00    +0.010 A 
ATOM     22  C   UNL     1       3.318   3.461 -22.914  0.00  0.00    -0.015 A 
ATOM     23  C   UNL     1       3.785   2.316 -22.511  0.00  0.00    +0.055 A 
ATOM     24  C   UNL     1       5.066   2.096 -22.519  0.00  0.00    +0.162 A 
BRANCH  19  26
ATOM     25  C   UNL     1       7.918   3.397 -23.814  0.00  0.00    +0.277 C 
ATOM     26  O   UNL     1       7.163   2.803 -22.938  0.00  0.00    -0.491 OA
ENDBRANCH  19  26
BRANCH  24  27
ATOM     27  O   UNL     1       5.532   0.951 -22.116  0.00  0.00    -0.491 OA
ATOM     28  C   UNL     1       4.988   0.351 -21.100  0.00  0.00    +0.277 C 
ENDBRANCH  24  27
ENDBRANCH   1  22
TORSDOF 6
ENDMDL
MODEL 4
REMARK VINA RESULT:    -9.786      1.390      8.938
REMARK INTER + INTRA:         -12.525
REMARK INTER:                 -11.277
REMARK INTRA:                  -1.248
REMARK UNBOUND:                 0.694
REMARK  Name = ZINC000001668160
REMARK  10 active torsions:
REMARK  status: ('A' for Active; 'I' for Inactive)
REMARK    1  A    between atoms: C_1  and  O_2
REMARK    2  A    between atoms: O_2  and  C_3
REMARK    3  A    between atoms: C_6  and  C_7
REMARK    4  A    between atoms: C_11  and  C_12
REMARK    5  A    between atoms: C_15  and  O_16
REMARK    6  A    between atoms: O_16  and  C_17
REMARK    7  A    between atoms: C_18  and  O_19
REMARK    8  A    between atoms: O_19  and  C_20
REMARK    9  A    between atoms: C_26  and  O_27
REMARK   10  A    between atoms: O_27  and  C_28
REMARK                            x       y       z     vdW  Elec       q    Type
REMARK                         _______ _______ _______ _____ _____    ______ ____
ROOT
ATOM      1  C   UNL     1       0.379   4.159 -23.262  0.00  0.00    +0.154 C 
ATOM      2  O   UNL     1       0.959   5.291 -23.531  0.00  0.00    -0.371 OA
ATOM      3  C   UNL     1       2.242   5.123 -23.419  0.00  0.00    +0.167 C 
ATOM      4  C   UNL     1       2.458   3.887 -23.081  0.00  0.00    +0.056 C 
ATOM      5  C   UNL     1       3.385   3.018 -22.803  0.00  0.00    +0.154 C 
ATOM      6  O   UNL     1       2.806   1.886 -22.534  0.00  0.00    -0.371 OA
ATOM      7  C   UNL     1       1.522   2.054 -22.646  0.00  0.00    +0.167 C 
ATOM      8  C   UNL     1       1.306   3.291 -22.984  0.00  0.00    +0.056 C 
ENDROOT
BRANCH   5   9
ATOM      9  C   UNL     1       4.665   3.244 -22.795  0.00  0.00    -0.015 A 
ATOM     10  C   UNL     1       5.342   3.184 -23.903  0.00  0.00    +0.010 A 
ATOM     11  C   UNL     1       6.622   3.410 -23.895  0.00  0.00    +0.050 A 
ATOM     12  C   UNL     1       7.225   3.694 -22.779  0.00  0.00    +0.162 A 
ATOM     13  C   UNL     1       6.548   3.754 -21.670  0.00  0.00    +0.162 A 
ATOM     14  C   UNL     1       5.268   3.528 -21.679  0.00  0.00    +0.055 A 
BRANCH  13  15
ATOM     15  O   UNL     1       7.151   4.039 -20.554  0.00  0.00    -0.491 OA
ATOM     16  C   UNL     1       7.178   5.266 -20.126  0.00  0.00    +0.277 C 
ENDBRANCH  13  15
BRANCH  12  17
ATOM     17  O   UNL     1       8.506   3.920 -22.771  0.00  0.00    -0.491 OA
ATOM     18  C   UNL     1       9.062   4.541 -23.768  0.00  0.00    +0.277 C 
ENDBRANCH  12  17
ENDBRANCH   5   9
BRANCH   1  22
ATOM     19  C   UNL     1      -3.461   3.483 -23.286  0.00  0.00    +0.162 A 
ATOM     20  C   UNL     1      -2.870   3.837 -22.183  0.00  0.00    +0.050 A 
ATOM     21  C   UNL     1      -1.589   4.062 -22.175  0.00  0.00    +0.010 A 
ATOM     22  C   UNL     1      -0.900   3.934 -23.270  0.00  0.00    -0.015 A 
ATOM     23  C   UNL     1      -1.491   3.580 -24.373  0.00  0.00    +0.055 A 
ATOM     24  C   UNL     1      -2.772   3.354 -24.381  0.00  0.00    +0.162 A 
BRANCH  19  26
ATOM     25  C   UNL     1      -5.421   3.333 -22.189  0.00  0.00    +0.277 C 
ATOM     26  O   UNL     1      -4.742   3.257 -23.294  0.00  0.00    -0.491 OA
ENDBRANCH  19  26
BRANCH  24  27
ATOM     27  O   UNL     1      -3.362   3.000 -25.484  0.00  0.00    -0.491 OA
ATOM     28  C   UNL     1      -2.947   3.471 -26.623  0.00  0.00    +0.277 C 
ENDBRANCH  24  27
ENDBRANCH   1  22
TORSDOF 6
ENDMDL
MODEL 5
REMARK VINA RESULT:    -9.784      1.543      8.896
REMARK INTER + INTRA:         -12.521
REMARK INTER:                 -11.696
REMARK INTRA:                  -0.825
REMARK UNBOUND:                 0.694
REMARK  Name = ZINC000001668160
REMARK  10 active torsions:
REMARK  status: ('A' for Active; 'I' for Inactive)
REMARK    1  A    between atoms: C_1  and  O_2
REMARK    2  A    between atoms: O_2  and  C_3
REMARK    3  A    between atoms: C_6  and  C_7
REMARK    4  A    between atoms: C_11  and  C_12
REMARK    5  A    between atoms: C_15  and  O_16
REMARK    6  A    between atoms: O_16  and  C_17
REMARK    7  A    between atoms: C_18  and  O_19
REMARK    8  A    between atoms: O_19  and  C_20
REMARK    9  A    between atoms: C_26  and  O_27
REMARK   10  A    between atoms: O_27  and  C_28
REMARK                            x       y       z     vdW  Elec       q    Type
REMARK                         _______ _______ _______ _____ _____    ______ ____
ROOT
ATOM      1  C   UNL     1      -1.205   3.784 -22.722  0.00  0.00    +0.154 C 
ATOM      2  O   UNL     1      -0.526   4.874 -22.923  0.00  0.00    -0.371 OA
ATOM      3  C   UNL     1       0.735   4.564 -22.945  0.00  0.00    +0.167 C 
ATOM      4  C   UNL     1       0.838   3.281 -22.758  0.00  0.00    +0.056 C 
ATOM      5  C   UNL     1       1.681   2.297 -22.656  0.00  0.00    +0.154 C 
ATOM      6  O   UNL     1       1.002   1.207 -22.456  0.00  0.00    -0.371 OA
ATOM      7  C   UNL     1      -0.260   1.517 -22.433  0.00  0.00    +0.167 C 
ATOM      8  C   UNL     1      -0.362   2.800 -22.620  0.00  0.00    +0.056 C 
ENDROOT
BRANCH   5   9
ATOM      9  C   UNL     1       2.974   2.388 -22.740  0.00  0.00    -0.015 A 
ATOM     10  C   UNL     1       3.515   3.361 -23.412  0.00  0.00    +0.010 A 
ATOM     11  C   UNL     1       4.810   3.451 -23.496  0.00  0.00    +0.050 A 
ATOM     12  C   UNL     1       5.562   2.569 -22.908  0.00  0.00    +0.162 A 
ATOM     13  C   UNL     1       5.021   1.596 -22.236  0.00  0.00    +0.162 A 
ATOM     14  C   UNL     1       3.728   1.506 -22.153  0.00  0.00    +0.055 A 
BRANCH  13  15
ATOM     15  O   UNL     1       5.774   0.714 -21.649  0.00  0.00    -0.491 OA
ATOM     16  C   UNL     1       5.306   0.022 -20.652  0.00  0.00    +0.277 C 
ENDBRANCH  13  15
BRANCH  12  17
ATOM     17  O   UNL     1       6.857   2.659 -22.992  0.00  0.00    -0.491 OA
ATOM     18  C   UNL     1       7.410   3.793 -23.307  0.00  0.00    +0.277 C 
ENDBRANCH  12  17
ENDBRANCH   5   9
BRANCH   1  22
ATOM     19  C   UNL     1      -5.087   3.512 -22.471  0.00  0.00    +0.162 A 
ATOM     20  C   UNL     1      -4.359   3.439 -21.396  0.00  0.00    +0.050 A 
ATOM     21  C   UNL     1      -3.065   3.530 -21.479  0.00  0.00    +0.010 A 
ATOM     22  C   UNL     1      -2.499   3.693 -22.638  0.00  0.00    -0.015 A 
ATOM     23  C   UNL     1      -3.227   3.766 -23.713  0.00  0.00    +0.055 A 
ATOM     24  C   UNL     1      -4.521   3.675 -23.630  0.00  0.00    +0.162 A 
BRANCH  19  26
ATOM     25  C   UNL     1      -6.922   2.499 -21.646  0.00  0.00    +0.277 C 
ATOM     26  O   UNL     1      -6.382   3.421 -22.387  0.00  0.00    -0.491 OA
ENDBRANCH  19  26
BRANCH  24  27
ATOM     27  O   UNL     1      -5.248   3.748 -24.705  0.00  0.00    -0.491 OA
ATOM     28  C   UNL     1      -4.791   3.285 -25.830  0.00  0.00    +0.277 C 
ENDBRANCH  24  27
ENDBRANCH   1  22
TORSDOF 6
ENDMDL
MODEL 6
REMARK VINA RESULT:    -9.555      1.293      8.813
REMARK INTER + INTRA:         -12.212
REMARK INTER:                 -11.361
REMARK INTRA:                  -0.850
REMARK UNBOUND:                 0.694
REMARK  Name = ZINC000001668160
REMARK  10 active torsions:
REMARK  status: ('A' for Active; 'I' for Inactive)
REMARK    1  A    between atoms: C_1  and  O_2
REMARK    2  A    between atoms: O_2  and  C_3
REMARK    3  A    between atoms: C_6  and  C_7
REMARK    4  A    between atoms: C_11  and  C_12
REMARK    5  A    between atoms: C_15  and  O_16
REMARK    6  A    between atoms: O_16  and  C_17
REMARK    7  A    between atoms: C_18  and  O_19
REMARK    8  A    between atoms: O_19  and  C_20
REMARK    9  A    between atoms: C_26  and  O_27
REMARK   10  A    between atoms: O_27  and  C_28
REMARK                            x       y       z     vdW  Elec       q    Type
REMARK                         _______ _______ _______ _____ _____    ______ ____
ROOT
ATOM      1  C   UNL     1       0.379   4.430 -23.298  0.00  0.00    +0.154 C 
ATOM      2  O   UNL     1       0.866   5.607 -23.560  0.00  0.00    -0.371 OA
ATOM      3  C   UNL     1       2.162   5.518 -23.542  0.00  0.00    +0.167 C 
ATOM      4  C   UNL     1       2.478   4.287 -23.270  0.00  0.00    +0.056 C 
ATOM      5  C   UNL     1       3.474   3.471 -23.090  0.00  0.00    +0.154 C 
ATOM      6  O   UNL     1       2.987   2.295 -22.829  0.00  0.00    -0.371 OA
ATOM      7  C   UNL     1       1.691   2.383 -22.846  0.00  0.00    +0.167 C 
ATOM      8  C   UNL     1       1.375   3.615 -23.119  0.00  0.00    +0.056 C 
ENDROOT
BRANCH   5   9
ATOM      9  C   UNL     1       4.735   3.779 -23.160  0.00  0.00    -0.015 A 
ATOM     10  C   UNL     1       5.568   2.973 -23.750  0.00  0.00    +0.010 A 
ATOM     11  C   UNL     1       6.830   3.282 -23.820  0.00  0.00    +0.050 A 
ATOM     12  C   UNL     1       7.257   4.394 -23.301  0.00  0.00    +0.162 A 
ATOM     13  C   UNL     1       6.424   5.200 -22.712  0.00  0.00    +0.162 A 
ATOM     14  C   UNL     1       5.163   4.892 -22.642  0.00  0.00    +0.055 A 
BRANCH  13  15
ATOM     15  O   UNL     1       6.851   6.313 -22.193  0.00  0.00    -0.491 OA
ATOM     16  C   UNL     1       6.002   7.173 -21.713  0.00  0.00    +0.277 C 
ENDBRANCH  13  15
BRANCH  12  17
ATOM     17  O   UNL     1       8.519   4.702 -23.371  0.00  0.00    -0.491 OA
ATOM     18  C   UNL     1       9.045   5.031 -24.514  0.00  0.00    +0.277 C 
ENDBRANCH  12  17
ENDBRANCH   5   9
BRANCH   1  22
ATOM     19  C   UNL     1      -3.404   3.508 -23.087  0.00  0.00    +0.162 A 
ATOM     20  C   UNL     1      -2.906   3.960 -24.200  0.00  0.00    +0.050 A 
ATOM     21  C   UNL     1      -1.645   4.268 -24.270  0.00  0.00    +0.010 A 
ATOM     22  C   UNL     1      -0.882   4.123 -23.228  0.00  0.00    -0.015 A 
ATOM     23  C   UNL     1      -1.380   3.671 -22.115  0.00  0.00    +0.055 A 
ATOM     24  C   UNL     1      -2.641   3.363 -22.044  0.00  0.00    +0.162 A 
BRANCH  19  26
ATOM     25  C   UNL     1      -5.529   3.822 -23.763  0.00  0.00    +0.277 C 
ATOM     26  O   UNL     1      -4.665   3.200 -23.016  0.00  0.00    -0.491 OA
ENDBRANCH  19  26
BRANCH  24  27
ATOM     27  O   UNL     1      -3.138   2.911 -20.932  0.00  0.00    -0.491 OA
ATOM     28  C   UNL     1      -3.135   3.659 -19.868  0.00  0.00    +0.277 C 
ENDBRANCH  24  27
ENDBRANCH   1  22
TORSDOF 6
ENDMDL
MODEL 7
REMARK VINA RESULT:    -9.314      1.756      3.128
REMARK INTER + INTRA:         -11.887
REMARK INTER:                 -10.628
REMARK INTRA:                  -1.259
REMARK UNBOUND:                 0.694
REMARK  Name = ZINC000001668160
REMARK  10 active torsions:
REMARK  status: ('A' for Active; 'I' for Inactive)
REMARK    1  A    between atoms: C_1  and  O_2
REMARK    2  A    between atoms: O_2  and  C_3
REMARK    3  A    between atoms: C_6  and  C_7
REMARK    4  A    between atoms: C_11  and  C_12
REMARK    5  A    between atoms: C_15  and  O_16
REMARK    6  A    between atoms: O_16  and  C_17
REMARK    7  A    between atoms: C_18  and  O_19
REMARK    8  A    between atoms: O_19  and  C_20
REMARK    9  A    between atoms: C_26  and  O_27
REMARK   10  A    between atoms: O_27  and  C_28
REMARK                            x       y       z     vdW  Elec       q    Type
REMARK                         _______ _______ _______ _____ _____    ______ ____
ROOT
ATOM      1  C   UNL     1       4.033   3.355 -23.022  0.00  0.00    +0.154 C 
ATOM      2  O   UNL     1       3.653   2.133 -23.245  0.00  0.00    -0.371 OA
ATOM      3  C   UNL     1       2.391   2.154 -23.555  0.00  0.00    +0.167 C 
ATOM      4  C   UNL     1       1.990   3.391 -23.524  0.00  0.00    +0.056 C 
ATOM      5  C   UNL     1       0.962   4.168 -23.696  0.00  0.00    +0.154 C 
ATOM      6  O   UNL     1       1.343   5.391 -23.473  0.00  0.00    -0.371 OA
ATOM      7  C   UNL     1       2.604   5.369 -23.163  0.00  0.00    +0.167 C 
ATOM      8  C   UNL     1       3.006   4.133 -23.194  0.00  0.00    +0.056 C 
ENDROOT
BRANCH   5   9
ATOM      9  C   UNL     1      -0.234   3.789 -24.032  0.00  0.00    -0.015 A 
ATOM     10  C   UNL     1      -0.586   3.782 -25.284  0.00  0.00    +0.010 A 
ATOM     11  C   UNL     1      -1.784   3.402 -25.620  0.00  0.00    +0.050 A 
ATOM     12  C   UNL     1      -2.628   3.030 -24.705  0.00  0.00    +0.162 A 
ATOM     13  C   UNL     1      -2.277   3.037 -23.453  0.00  0.00    +0.162 A 
ATOM     14  C   UNL     1      -1.080   3.417 -23.118  0.00  0.00    +0.055 A 
BRANCH  13  15
ATOM     15  O   UNL     1      -3.121   2.665 -22.538  0.00  0.00    -0.491 OA
ATOM     16  C   UNL     1      -2.973   3.074 -21.313  0.00  0.00    +0.277 C 
ENDBRANCH  13  15
BRANCH  12  17
ATOM     17  O   UNL     1      -3.826   2.651 -25.041  0.00  0.00    -0.491 OA
ATOM     18  C   UNL     1      -4.394   3.152 -26.098  0.00  0.00    +0.277 C 
ENDBRANCH  12  17
ENDBRANCH   5   9
BRANCH   1  22
ATOM     19  C   UNL     1       7.624   4.493 -22.013  0.00  0.00    +0.162 A 
ATOM     20  C   UNL     1       6.898   3.815 -21.175  0.00  0.00    +0.050 A 
ATOM     21  C   UNL     1       5.700   3.435 -21.511  0.00  0.00    +0.010 A 
ATOM     22  C   UNL     1       5.229   3.735 -22.686  0.00  0.00    -0.015 A 
ATOM     23  C   UNL     1       5.956   4.414 -23.523  0.00  0.00    +0.055 A 
ATOM     24  C   UNL     1       7.153   4.793 -23.187  0.00  0.00    +0.162 A 
BRANCH  19  26
ATOM     25  C   UNL     1       9.029   5.410 -20.511  0.00  0.00    +0.277 C 
ATOM     26  O   UNL     1       8.821   4.873 -21.677  0.00  0.00    -0.491 OA
ENDBRANCH  19  26
BRANCH  24  27
ATOM     27  O   UNL     1       7.879   5.472 -24.026  0.00  0.00    -0.491 OA
ATOM     28  C   UNL     1       8.271   4.923 -25.137  0.00  0.00    +0.277 C 
ENDBRANCH  24  27
ENDBRANCH   1  22
TORSDOF 6
ENDMDL
