MODEL 1
REMARK VINA RESULT:   -10.019      0.000      0.000
REMARK INTER + INTRA:         -10.019
REMARK INTER:                 -10.019
REMARK INTRA:                   0.000
REMARK UNBOUND:                 0.000
REMARK  Name = ZINC000004104819
REMARK  3 active torsions:
REMARK  status: ('A' for Active; 'I' for Inactive)
REMARK    1  A    between atoms: C_1  and  C_2
REMARK    2  A    between atoms: C_10  and  C_11
REMARK    3  A    between atoms: C_16  and  C_17
REMARK                            x       y       z     vdW  Elec       q    Type
REMARK                         _______ _______ _______ _____ _____    ______ ____
ROOT
ATOM      1  C   UNL     1      -0.702   2.018 -21.270  0.00  0.00    +0.019 C 
ATOM      2  C   UNL     1      -0.515   2.326 -22.519  0.00  0.00    +0.101 C 
ATOM      3  C   UNL     1       0.609   2.244 -23.166  0.00  0.00    +0.311 C 
ATOM      4  O   UNL     1       0.400   2.637 -24.387  0.00  0.00    -0.458 OA
ATOM      5  C   UNL     1      -0.854   2.963 -24.494  0.00  0.00    +0.212 C 
ATOM      6  C   UNL     1      -1.554   3.410 -25.495  0.00  0.00    +0.191 C 
ATOM      7  O   UNL     1      -2.255   3.857 -26.495  0.00  0.00    -0.361 OA
ATOM      8  C   UNL     1      -2.820   3.664 -25.340  0.00  0.00    +0.097 C 
ATOM      9  C   UNL     1      -3.955   4.069 -25.828  0.00  0.00    +0.044 C 
ATOM     10  C   UNL     1      -3.385   3.472 -24.186  0.00  0.00    +0.040 C 
ATOM     11  C   UNL     1      -4.651   3.726 -24.032  0.00  0.00    +0.037 C 
ATOM     12  C   UNL     1      -5.216   3.534 -22.877  0.00  0.00    +0.151 C 
ATOM     13  O   UNL     1      -5.782   3.341 -21.722  0.00  0.00    -0.365 OA
ATOM     14  C   UNL     1      -4.516   3.087 -21.876  0.00  0.00    +0.093 C 
ATOM     15  C   UNL     1      -4.439   2.718 -20.632  0.00  0.00    +0.044 C 
ATOM     16  C   UNL     1      -3.251   2.832 -22.031  0.00  0.00    +0.038 C 
ATOM     17  C   UNL     1      -2.686   3.025 -23.185  0.00  0.00    +0.011 C 
ATOM     18  O   UNL     1       1.744   1.839 -22.678  0.00  0.00    -0.251 OA
ATOM     19  C   UNL     1      -1.420   2.770 -23.340  0.00  0.00    +0.046 C 
ENDROOT
TORSDOF 0
ENDMDL
MODEL 2
REMARK VINA RESULT:    -9.606      1.257      3.426
REMARK INTER + INTRA:          -9.606
REMARK INTER:                  -9.606
REMARK INTRA:                   0.000
REMARK UNBOUND:                 0.000
REMARK  Name = ZINC000004104819
REMARK  3 active torsions:
REMARK  status: ('A' for Active; 'I' for Inactive)
REMARK    1  A    between atoms: C_1  and  C_2
REMARK    2  A    between atoms: C_10  and  C_11
REMARK    3  A    between atoms: C_16  and  C_17
REMARK                            x       y       z     vdW  Elec       q    Type
REMARK                         _______ _______ _______ _____ _____    ______ ____
ROOT
ATOM      1  C   UNL     1       0.099   2.623 -24.390  0.00  0.00    +0.019 C 
ATOM      2  C   UNL     1      -0.412   2.496 -23.202  0.00  0.00    +0.101 C 
ATOM      3  C   UNL     1       0.226   2.131 -22.130  0.00  0.00    +0.311 C 
ATOM      4  O   UNL     1      -0.620   2.121 -21.143  0.00  0.00    -0.458 OA
ATOM      5  C   UNL     1      -1.781   2.479 -21.605  0.00  0.00    +0.212 C 
ATOM      6  C   UNL     1      -2.938   2.624 -21.031  0.00  0.00    +0.191 C 
ATOM      7  O   UNL     1      -4.096   2.769 -20.457  0.00  0.00    -0.361 OA
ATOM      8  C   UNL     1      -3.968   3.001 -21.730  0.00  0.00    +0.097 C 
ATOM      9  C   UNL     1      -5.230   3.302 -21.802  0.00  0.00    +0.044 C 
ATOM     10  C   UNL     1      -3.839   3.233 -23.002  0.00  0.00    +0.040 C 
ATOM     11  C   UNL     1      -4.870   3.610 -23.701  0.00  0.00    +0.037 C 
ATOM     12  C   UNL     1      -4.741   3.841 -24.974  0.00  0.00    +0.151 C 
ATOM     13  O   UNL     1      -4.613   4.073 -26.247  0.00  0.00    -0.365 OA
ATOM     14  C   UNL     1      -3.583   3.696 -25.548  0.00  0.00    +0.093 C 
ATOM     15  C   UNL     1      -2.841   3.746 -26.614  0.00  0.00    +0.044 C 
ATOM     16  C   UNL     1      -2.554   3.319 -24.849  0.00  0.00    +0.038 C 
ATOM     17  C   UNL     1      -2.683   3.088 -23.576  0.00  0.00    +0.011 C 
ATOM     18  O   UNL     1       1.488   1.830 -22.057  0.00  0.00    -0.251 OA
ATOM     19  C   UNL     1      -1.653   2.711 -22.878  0.00  0.00    +0.046 C 
ENDROOT
TORSDOF 0
ENDMDL
MODEL 3
REMARK VINA RESULT:    -9.570      0.870      4.290
REMARK INTER + INTRA:          -9.570
REMARK INTER:                  -9.570
REMARK INTRA:                   0.000
REMARK UNBOUND:                 0.000
REMARK  Name = ZINC000004104819
REMARK  3 active torsions:
REMARK  status: ('A' for Active; 'I' for Inactive)
REMARK    1  A    between atoms: C_1  and  C_2
REMARK    2  A    between atoms: C_10  and  C_11
REMARK    3  A    between atoms: C_16  and  C_17
REMARK                            x       y       z     vdW  Elec       q    Type
REMARK                         _______ _______ _______ _____ _____    ______ ____
ROOT
ATOM      1  C   UNL     1      -4.053   2.265 -20.658  0.00  0.00    +0.019 C 
ATOM      2  C   UNL     1      -4.401   2.772 -21.803  0.00  0.00    +0.101 C 
ATOM      3  C   UNL     1      -5.600   3.143 -22.142  0.00  0.00    +0.311 C 
ATOM      4  O   UNL     1      -5.551   3.598 -23.358  0.00  0.00    -0.458 OA
ATOM      5  C   UNL     1      -4.322   3.508 -23.771  0.00  0.00    +0.212 C 
ATOM      6  C   UNL     1      -3.757   3.826 -24.899  0.00  0.00    +0.191 C 
ATOM      7  O   UNL     1      -3.193   4.143 -26.027  0.00  0.00    -0.361 OA
ATOM      8  C   UNL     1      -2.482   3.633 -25.065  0.00  0.00    +0.097 C 
ATOM      9  C   UNL     1      -1.421   3.705 -25.811  0.00  0.00    +0.044 C 
ATOM     10  C   UNL     1      -1.772   3.123 -24.103  0.00  0.00    +0.040 C 
ATOM     11  C   UNL     1      -0.496   2.931 -24.270  0.00  0.00    +0.037 C 
ATOM     12  C   UNL     1       0.214   2.421 -23.308  0.00  0.00    +0.151 C 
ATOM     13  O   UNL     1       0.925   1.911 -22.346  0.00  0.00    -0.365 OA
ATOM     14  C   UNL     1      -0.350   2.103 -22.180  0.00  0.00    +0.093 C 
ATOM     15  C   UNL     1      -0.265   1.625 -20.974  0.00  0.00    +0.044 C 
ATOM     16  C   UNL     1      -1.625   2.296 -22.014  0.00  0.00    +0.038 C 
ATOM     17  C   UNL     1      -2.335   2.806 -22.976  0.00  0.00    +0.011 C 
ATOM     18  O   UNL     1      -6.662   3.071 -21.395  0.00  0.00    -0.251 OA
ATOM     19  C   UNL     1      -3.610   2.998 -22.810  0.00  0.00    +0.046 C 
ENDROOT
TORSDOF 0
ENDMDL
MODEL 4
REMARK VINA RESULT:    -9.184      1.144      4.537
REMARK INTER + INTRA:          -9.184
REMARK INTER:                  -9.184
REMARK INTRA:                   0.000
REMARK UNBOUND:                 0.000
REMARK  Name = ZINC000004104819
REMARK  3 active torsions:
REMARK  status: ('A' for Active; 'I' for Inactive)
REMARK    1  A    between atoms: C_1  and  C_2
REMARK    2  A    between atoms: C_10  and  C_11
REMARK    3  A    between atoms: C_16  and  C_17
REMARK                            x       y       z     vdW  Elec       q    Type
REMARK                         _______ _______ _______ _____ _____    ______ ____
ROOT
ATOM      1  C   UNL     1      -1.529   3.473 -25.979  0.00  0.00    +0.019 C 
ATOM      2  C   UNL     1      -2.749   3.658 -25.570  0.00  0.00    +0.101 C 
ATOM      3  C   UNL     1      -3.743   4.079 -26.294  0.00  0.00    +0.311 C 
ATOM      4  O   UNL     1      -4.797   4.137 -25.536  0.00  0.00    -0.458 OA
ATOM      5  C   UNL     1      -4.455   3.751 -24.343  0.00  0.00    +0.212 C 
ATOM      6  C   UNL     1      -5.133   3.631 -23.240  0.00  0.00    +0.191 C 
ATOM      7  O   UNL     1      -5.810   3.511 -22.136  0.00  0.00    -0.361 OA
ATOM      8  C   UNL     1      -4.545   3.216 -22.157  0.00  0.00    +0.097 C 
ATOM      9  C   UNL     1      -4.596   2.907 -20.896  0.00  0.00    +0.044 C 
ATOM     10  C   UNL     1      -3.279   2.920 -22.178  0.00  0.00    +0.040 C 
ATOM     11  C   UNL     1      -2.691   2.505 -21.095  0.00  0.00    +0.037 C 
ATOM     12  C   UNL     1      -1.425   2.209 -21.116  0.00  0.00    +0.151 C 
ATOM     13  O   UNL     1      -0.159   1.914 -21.137  0.00  0.00    -0.365 OA
ATOM     14  C   UNL     1      -0.747   2.329 -22.219  0.00  0.00    +0.093 C 
ATOM     15  C   UNL     1       0.375   2.228 -22.868  0.00  0.00    +0.044 C 
ATOM     16  C   UNL     1      -1.335   2.745 -23.301  0.00  0.00    +0.038 C 
ATOM     17  C   UNL     1      -2.601   3.040 -23.281  0.00  0.00    +0.011 C 
ATOM     18  O   UNL     1      -3.691   4.389 -27.556  0.00  0.00    -0.251 OA
ATOM     19  C   UNL     1      -3.189   3.456 -24.363  0.00  0.00    +0.046 C 
ENDROOT
TORSDOF 0
ENDMDL
MODEL 5
REMARK VINA RESULT:    -8.844      1.955      2.966
REMARK INTER + INTRA:          -8.844
REMARK INTER:                  -8.844
REMARK INTRA:                   0.000
REMARK UNBOUND:                 0.000
REMARK  Name = ZINC000004104819
REMARK  3 active torsions:
REMARK  status: ('A' for Active; 'I' for Inactive)
REMARK    1  A    between atoms: C_1  and  C_2
REMARK    2  A    between atoms: C_10  and  C_11
REMARK    3  A    between atoms: C_16  and  C_17
REMARK                            x       y       z     vdW  Elec       q    Type
REMARK                         _______ _______ _______ _____ _____    ______ ____
ROOT
ATOM      1  C   UNL     1       0.775   1.348 -20.402  0.00  0.00    +0.019 C 
ATOM      2  C   UNL     1       1.448   1.482 -21.506  0.00  0.00    +0.101 C 
ATOM      3  C   UNL     1       2.656   1.054 -21.722  0.00  0.00    +0.311 C 
ATOM      4  O   UNL     1       2.985   1.375 -22.937  0.00  0.00    -0.458 OA
ATOM      5  C   UNL     1       1.981   2.003 -23.472  0.00  0.00    +0.212 C 
ATOM      6  C   UNL     1       1.809   2.523 -24.652  0.00  0.00    +0.191 C 
ATOM      7  O   UNL     1       1.637   3.043 -25.831  0.00  0.00    -0.361 OA
ATOM      8  C   UNL     1       0.687   3.109 -24.946  0.00  0.00    +0.097 C 
ATOM      9  C   UNL     1      -0.061   3.748 -25.797  0.00  0.00    +0.044 C 
ATOM     10  C   UNL     1      -0.264   3.175 -24.062  0.00  0.00    +0.040 C 
ATOM     11  C   UNL     1      -1.387   3.761 -24.357  0.00  0.00    +0.037 C 
ATOM     12  C   UNL     1      -2.337   3.827 -23.472  0.00  0.00    +0.151 C 
ATOM     13  O   UNL     1      -3.287   3.893 -22.588  0.00  0.00    -0.365 OA
ATOM     14  C   UNL     1      -2.165   3.307 -22.293  0.00  0.00    +0.093 C 
ATOM     15  C   UNL     1      -2.614   3.045 -21.102  0.00  0.00    +0.044 C 
ATOM     16  C   UNL     1      -1.042   2.721 -21.998  0.00  0.00    +0.038 C 
ATOM     17  C   UNL     1      -0.092   2.655 -22.883  0.00  0.00    +0.011 C 
ATOM     18  O   UNL     1       3.404   0.415 -20.871  0.00  0.00    -0.251 OA
ATOM     19  C   UNL     1       1.030   2.069 -22.588  0.00  0.00    +0.046 C 
ENDROOT
TORSDOF 0
ENDMDL
MODEL 6
REMARK VINA RESULT:    -8.619      1.547      3.483
REMARK INTER + INTRA:          -8.619
REMARK INTER:                  -8.619
REMARK INTRA:                   0.000
REMARK UNBOUND:                 0.000
REMARK  Name = ZINC000004104819
REMARK  3 active torsions:
REMARK  status: ('A' for Active; 'I' for Inactive)
REMARK    1  A    between atoms: C_1  and  C_2
REMARK    2  A    between atoms: C_10  and  C_11
REMARK    3  A    between atoms: C_16  and  C_17
REMARK                            x       y       z     vdW  Elec       q    Type
REMARK                         _______ _______ _______ _____ _____    ______ ____
ROOT
ATOM      1  C   UNL     1       0.730   3.285 -25.860  0.00  0.00    +0.019 C 
ATOM      2  C   UNL     1       0.694   3.072 -24.578  0.00  0.00    +0.101 C 
ATOM      3  C   UNL     1       1.721   2.876 -23.806  0.00  0.00    +0.311 C 
ATOM      4  O   UNL     1       1.285   2.700 -22.595  0.00  0.00    -0.458 OA
ATOM      5  C   UNL     1      -0.011   2.787 -22.617  0.00  0.00    +0.212 C 
ATOM      6  C   UNL     1      -0.907   2.687 -21.680  0.00  0.00    +0.191 C 
ATOM      7  O   UNL     1      -1.802   2.586 -20.742  0.00  0.00    -0.361 OA
ATOM      8  C   UNL     1      -2.168   2.816 -21.969  0.00  0.00    +0.097 C 
ATOM      9  C   UNL     1      -3.413   2.832 -21.594  0.00  0.00    +0.044 C 
ATOM     10  C   UNL     1      -2.533   3.045 -23.195  0.00  0.00    +0.040 C 
ATOM     11  C   UNL     1      -3.795   3.175 -23.483  0.00  0.00    +0.037 C 
ATOM     12  C   UNL     1      -4.160   3.404 -24.709  0.00  0.00    +0.151 C 
ATOM     13  O   UNL     1      -4.526   3.634 -25.936  0.00  0.00    -0.365 OA
ATOM     14  C   UNL     1      -3.265   3.505 -25.647  0.00  0.00    +0.093 C 
ATOM     15  C   UNL     1      -2.960   3.695 -26.896  0.00  0.00    +0.044 C 
ATOM     16  C   UNL     1      -2.004   3.375 -25.358  0.00  0.00    +0.038 C 
ATOM     17  C   UNL     1      -1.639   3.146 -24.132  0.00  0.00    +0.011 C 
ATOM     18  O   UNL     1       2.966   2.860 -24.180  0.00  0.00    -0.251 OA
ATOM     19  C   UNL     1      -0.378   3.017 -23.843  0.00  0.00    +0.046 C 
ENDROOT
TORSDOF 0
ENDMDL
MODEL 7
REMARK VINA RESULT:    -8.257      2.962      5.390
REMARK INTER + INTRA:          -8.257
REMARK INTER:                  -8.257
REMARK INTRA:                   0.000
REMARK UNBOUND:                 0.000
REMARK  Name = ZINC000004104819
REMARK  3 active torsions:
REMARK  status: ('A' for Active; 'I' for Inactive)
REMARK    1  A    between atoms: C_1  and  C_2
REMARK    2  A    between atoms: C_10  and  C_11
REMARK    3  A    between atoms: C_16  and  C_17
REMARK                            x       y       z     vdW  Elec       q    Type
REMARK                         _______ _______ _______ _____ _____    ______ ____
ROOT
ATOM      1  C   UNL     1       4.326   3.339 -23.882  0.00  0.00    +0.019 C 
ATOM      2  C   UNL     1       3.928   2.741 -22.799  0.00  0.00    +0.101 C 
ATOM      3  C   UNL     1       4.693   2.304 -21.842  0.00  0.00    +0.311 C 
ATOM      4  O   UNL     1       3.933   1.767 -20.935  0.00  0.00    -0.458 OA
ATOM      5  C   UNL     1       2.699   1.872 -21.330  0.00  0.00    +0.212 C 
ATOM      6  C   UNL     1       1.578   1.497 -20.789  0.00  0.00    +0.191 C 
ATOM      7  O   UNL     1       0.456   1.122 -20.249  0.00  0.00    -0.361 OA
ATOM      8  C   UNL     1       0.453   1.724 -21.401  0.00  0.00    +0.097 C 
ATOM      9  C   UNL     1      -0.843   1.638 -21.443  0.00  0.00    +0.044 C 
ATOM     10  C   UNL     1       0.451   2.325 -22.554  0.00  0.00    +0.040 C 
ATOM     11  C   UNL     1      -0.675   2.552 -23.165  0.00  0.00    +0.037 C 
ATOM     12  C   UNL     1      -0.677   3.153 -24.318  0.00  0.00    +0.151 C 
ATOM     13  O   UNL     1      -0.680   3.755 -25.470  0.00  0.00    -0.365 OA
ATOM     14  C   UNL     1       0.444   3.528 -24.858  0.00  0.00    +0.093 C 
ATOM     15  C   UNL     1       1.090   4.092 -25.836  0.00  0.00    +0.044 C 
ATOM     16  C   UNL     1       1.569   3.302 -24.247  0.00  0.00    +0.038 C 
ATOM     17  C   UNL     1       1.571   2.700 -23.094  0.00  0.00    +0.011 C 
ATOM     18  O   UNL     1       5.989   2.389 -21.801  0.00  0.00    -0.251 OA
ATOM     19  C   UNL     1       2.696   2.473 -22.482  0.00  0.00    +0.046 C 
ENDROOT
TORSDOF 0
ENDMDL
MODEL 8
REMARK VINA RESULT:    -8.252      1.521      4.638
REMARK INTER + INTRA:          -8.252
REMARK INTER:                  -8.252
REMARK INTRA:                   0.000
REMARK UNBOUND:                 0.000
REMARK  Name = ZINC000004104819
REMARK  3 active torsions:
REMARK  status: ('A' for Active; 'I' for Inactive)
REMARK    1  A    between atoms: C_1  and  C_2
REMARK    2  A    between atoms: C_10  and  C_11
REMARK    3  A    between atoms: C_16  and  C_17
REMARK                            x       y       z     vdW  Elec       q    Type
REMARK                         _______ _______ _______ _____ _____    ______ ____
ROOT
ATOM      1  C   UNL     1      -3.039   2.642 -22.284  0.00  0.00    +0.019 C 
ATOM      2  C   UNL     1      -2.569   3.126 -23.394  0.00  0.00    +0.101 C 
ATOM      3  C   UNL     1      -3.263   3.691 -24.337  0.00  0.00    +0.311 C 
ATOM      4  O   UNL     1      -2.445   4.044 -25.282  0.00  0.00    -0.458 OA
ATOM      5  C   UNL     1      -1.244   3.699 -24.924  0.00  0.00    +0.212 C 
ATOM      6  C   UNL     1      -0.090   3.827 -25.510  0.00  0.00    +0.191 C 
ATOM      7  O   UNL     1       1.064   3.956 -26.096  0.00  0.00    -0.361 OA
ATOM      8  C   UNL     1       0.986   3.388 -24.929  0.00  0.00    +0.097 C 
ATOM      9  C   UNL     1       2.274   3.209 -24.931  0.00  0.00    +0.044 C 
ATOM     10  C   UNL     1       0.909   2.821 -23.762  0.00  0.00    +0.040 C 
ATOM     11  C   UNL     1       1.987   2.382 -23.180  0.00  0.00    +0.037 C 
ATOM     12  C   UNL     1       1.910   1.814 -22.014  0.00  0.00    +0.151 C 
ATOM     13  O   UNL     1       1.833   1.246 -20.847  0.00  0.00    -0.365 OA
ATOM     14  C   UNL     1       0.756   1.685 -21.428  0.00  0.00    +0.093 C 
ATOM     15  C   UNL     1       0.046   1.283 -20.416  0.00  0.00    +0.044 C 
ATOM     16  C   UNL     1      -0.320   2.124 -22.009  0.00  0.00    +0.038 C 
ATOM     17  C   UNL     1      -0.243   2.692 -23.176  0.00  0.00    +0.011 C 
ATOM     18  O   UNL     1      -4.551   3.870 -24.335  0.00  0.00    -0.251 OA
ATOM     19  C   UNL     1      -1.320   3.131 -23.757  0.00  0.00    +0.046 C 
ENDROOT
TORSDOF 0
ENDMDL
MODEL 9
REMARK VINA RESULT:    -8.184      1.639      5.463
REMARK INTER + INTRA:          -8.184
REMARK INTER:                  -8.184
REMARK INTRA:                   0.000
REMARK UNBOUND:                 0.000
REMARK  Name = ZINC000004104819
REMARK  3 active torsions:
REMARK  status: ('A' for Active; 'I' for Inactive)
REMARK    1  A    between atoms: C_1  and  C_2
REMARK    2  A    between atoms: C_10  and  C_11
REMARK    3  A    between atoms: C_16  and  C_17
REMARK                            x       y       z     vdW  Elec       q    Type
REMARK                         _______ _______ _______ _____ _____    ______ ____
ROOT
ATOM      1  C   UNL     1      -3.016   4.418 -25.266  0.00  0.00    +0.019 C 
ATOM      2  C   UNL     1      -3.170   3.758 -24.157  0.00  0.00    +0.101 C 
ATOM      3  C   UNL     1      -4.292   3.569 -23.529  0.00  0.00    +0.311 C 
ATOM      4  O   UNL     1      -4.044   2.866 -22.465  0.00  0.00    -0.458 OA
ATOM      5  C   UNL     1      -2.768   2.620 -22.435  0.00  0.00    +0.212 C 
ATOM      6  C   UNL     1      -2.029   1.964 -21.590  0.00  0.00    +0.191 C 
ATOM      7  O   UNL     1      -1.289   1.309 -20.745  0.00  0.00    -0.361 OA
ATOM      8  C   UNL     1      -0.748   1.861 -21.790  0.00  0.00    +0.097 C 
ATOM      9  C   UNL     1       0.418   1.423 -21.419  0.00  0.00    +0.044 C 
ATOM     10  C   UNL     1      -0.208   2.412 -22.836  0.00  0.00    +0.040 C 
ATOM     11  C   UNL     1       1.073   2.308 -23.037  0.00  0.00    +0.037 C 
ATOM     12  C   UNL     1       1.613   2.860 -24.082  0.00  0.00    +0.151 C 
ATOM     13  O   UNL     1       2.154   3.412 -25.128  0.00  0.00    -0.365 OA
ATOM     14  C   UNL     1       0.873   3.516 -24.927  0.00  0.00    +0.093 C 
ATOM     15  C   UNL     1       0.759   4.213 -26.019  0.00  0.00    +0.044 C 
ATOM     16  C   UNL     1      -0.407   3.619 -24.727  0.00  0.00    +0.038 C 
ATOM     17  C   UNL     1      -0.947   3.068 -23.681  0.00  0.00    +0.011 C 
ATOM     18  O   UNL     1      -5.459   4.007 -23.901  0.00  0.00    -0.251 OA
ATOM     19  C   UNL     1      -2.227   3.171 -23.480  0.00  0.00    +0.046 C 
ENDROOT
TORSDOF 0
ENDMDL
