MODEL 1
REMARK VINA RESULT:   -10.678      0.000      0.000
REMARK INTER + INTRA:         -10.990
REMARK INTER:                 -10.990
REMARK INTRA:                   0.000
REMARK UNBOUND:                 0.000
REMARK  Name = O=CN1CC[C@@]23CC(=O)CC[C@H]2[C@H]1Cc1cc(Br)c(O)cc13                  ZINC000100393521
REMARK  1 active torsions:
REMARK  status: ('A' for Active; 'I' for Inactive)
REMARK    1  A    between atoms: C_19  and  O_20
REMARK                            x       y       z     vdW  Elec       q    Type
REMARK                         _______ _______ _______ _____ _____    ______ ____
ROOT
ATOM      1  O   UNL     1       1.197   3.917 -26.007  0.00  0.00    -0.279 OA
ATOM      2  C   UNL     1       0.222   3.802 -25.404  0.00  0.00    +0.328 C 
ATOM      3  N   UNL     1      -0.584   3.364 -24.132  0.00  0.00    -0.300 N 
ATOM      4  C   UNL     1      -1.291   3.069 -23.216  0.00  0.00    +0.109 C 
ATOM      5  C   UNL     1      -0.948   2.546 -22.159  0.00  0.00    +0.031 C 
ATOM      6  C   UNL     1      -0.033   2.335 -22.008  0.00  0.00    +0.009 C 
ATOM      7  C   UNL     1       0.408   1.796 -20.948  0.00  0.00    +0.086 C 
ATOM      8  C   UNL     1       1.679   1.546 -20.834  0.00  0.00    +0.134 C 
ATOM      9  C   UNL     1       2.525   1.846 -21.809  0.00  0.00    +0.075 C 
ATOM     10  C   UNL     1       2.105   2.404 -22.919  0.00  0.00    +0.014 C 
ATOM     11  O   UNL     1       2.040   0.985 -19.697  0.00  0.00    -0.297 OA
ATOM     12  C   UNL     1      -1.636   2.758 -22.392  0.00  0.00    -0.034 A 
ATOM     13  C   UNL     1      -2.439   2.453 -21.422  0.00  0.00    +0.051 A 
ATOM     14  C   UNL     1      -3.692   2.698 -21.532  0.00  0.00    +0.131 A 
ATOM     15  C   UNL     1      -4.155   3.249 -22.609  0.00  0.00    +0.059 A 
ATOM     16 BR   UNL     1      -5.428   3.430 -22.568  0.00  0.00    -0.047 Br
ATOM     17  C   UNL     1      -3.348   3.555 -23.586  0.00  0.00    +0.023 A 
ATOM     18  C   UNL     1      -2.091   3.314 -23.487  0.00  0.00    -0.041 A 
ATOM     19  C   UNL     1      -1.307   3.585 -24.374  0.00  0.00    +0.058 C 
ATOM     20  C   UNL     1       0.875   2.666 -23.074  0.00  0.00    +0.021 C 
ATOM     21  C   UNL     1       0.280   3.239 -24.154  0.00  0.00    +0.084 C 
ENDROOT
BRANCH  14  22
ATOM     22  O   UNL     1      -4.432   2.348 -20.481  0.00  0.00    -0.506 OA
ATOM     23  H   UNL     1      -4.804   3.007 -19.930  0.00  0.00    +0.292 HD
ENDBRANCH  14  22
TORSDOF 1
ENDMDL
MODEL 2
REMARK VINA RESULT:   -10.357      1.287      3.409
REMARK INTER + INTRA:         -10.660
REMARK INTER:                 -10.660
REMARK INTRA:                   0.000
REMARK UNBOUND:                 0.000
REMARK  Name = O=CN1CC[C@@]23CC(=O)CC[C@H]2[C@H]1Cc1cc(Br)c(O)cc13                  ZINC000100393521
REMARK  1 active torsions:
REMARK  status: ('A' for Active; 'I' for Inactive)
REMARK    1  A    between atoms: C_19  and  O_20
REMARK                            x       y       z     vdW  Elec       q    Type
REMARK                         _______ _______ _______ _____ _____    ______ ____
ROOT
ATOM      1  O   UNL     1       1.494   1.186 -20.294  0.00  0.00    -0.279 OA
ATOM      2  C   UNL     1       0.433   1.505 -20.610  0.00  0.00    +0.328 C 
ATOM      3  N   UNL     1      -0.580   2.173 -21.603  0.00  0.00    -0.300 N 
ATOM      4  C   UNL     1      -1.434   2.655 -22.286  0.00  0.00    +0.109 C 
ATOM      5  C   UNL     1      -1.285   3.204 -23.374  0.00  0.00    +0.031 C 
ATOM      6  C   UNL     1      -0.417   3.278 -23.755  0.00  0.00    +0.009 C 
ATOM      7  C   UNL     1      -0.173   3.828 -24.870  0.00  0.00    +0.086 C 
ATOM      8  C   UNL     1       1.050   3.881 -25.308  0.00  0.00    +0.134 C 
ATOM      9  C   UNL     1       2.051   3.368 -24.607  0.00  0.00    +0.075 C 
ATOM     10  C   UNL     1       1.836   2.791 -23.449  0.00  0.00    +0.014 C 
ATOM     11  O   UNL     1       1.202   4.472 -26.477  0.00  0.00    -0.297 OA
ATOM     12  C   UNL     1      -1.917   3.086 -22.974  0.00  0.00    -0.034 A 
ATOM     13  C   UNL     1      -2.874   3.597 -23.683  0.00  0.00    +0.051 A 
ATOM     14  C   UNL     1      -4.081   3.546 -23.253  0.00  0.00    +0.131 A 
ATOM     15  C   UNL     1      -4.343   2.987 -22.115  0.00  0.00    +0.059 A 
ATOM     16 BR   UNL     1      -5.596   3.015 -21.823  0.00  0.00    -0.047 Br
ATOM     17  C   UNL     1      -3.381   2.473 -21.402  0.00  0.00    +0.023 A 
ATOM     18  C   UNL     1      -2.169   2.518 -21.822  0.00  0.00    -0.041 A 
ATOM     19  C   UNL     1      -1.244   2.051 -21.187  0.00  0.00    +0.058 C 
ATOM     20  C   UNL     1       0.660   2.717 -22.983  0.00  0.00    +0.021 C 
ATOM     21  C   UNL     1       0.269   2.157 -21.807  0.00  0.00    +0.084 C 
ENDROOT
BRANCH  14  22
ATOM     22  O   UNL     1      -4.990   4.098 -24.055  0.00  0.00    -0.506 OA
ATOM     23  H   UNL     1      -5.615   3.558 -24.496  0.00  0.00    +0.292 HD
ENDBRANCH  14  22
TORSDOF 1
ENDMDL
MODEL 3
REMARK VINA RESULT:   -10.214      2.409      5.574
REMARK INTER + INTRA:         -10.512
REMARK INTER:                 -10.512
REMARK INTRA:                   0.000
REMARK UNBOUND:                 0.000
REMARK  Name = O=CN1CC[C@@]23CC(=O)CC[C@H]2[C@H]1Cc1cc(Br)c(O)cc13                  ZINC000100393521
REMARK  1 active torsions:
REMARK  status: ('A' for Active; 'I' for Inactive)
REMARK    1  A    between atoms: C_19  and  O_20
REMARK                            x       y       z     vdW  Elec       q    Type
REMARK                         _______ _______ _______ _____ _____    ______ ____
ROOT
ATOM      1  O   UNL     1      -4.817   2.752 -20.745  0.00  0.00    -0.279 OA
ATOM      2  C   UNL     1      -3.700   2.562 -20.955  0.00  0.00    +0.328 C 
ATOM      3  N   UNL     1      -2.455   2.500 -21.907  0.00  0.00    -0.300 N 
ATOM      4  C   UNL     1      -1.445   2.421 -22.541  0.00  0.00    +0.109 C 
ATOM      5  C   UNL     1      -1.309   2.644 -23.741  0.00  0.00    +0.031 C 
ATOM      6  C   UNL     1      -2.058   2.911 -24.263  0.00  0.00    +0.009 C 
ATOM      7  C   UNL     1      -2.008   3.160 -25.505  0.00  0.00    +0.086 C 
ATOM      8  C   UNL     1      -3.088   3.518 -26.133  0.00  0.00    +0.134 C 
ATOM      9  C   UNL     1      -4.246   3.628 -25.497  0.00  0.00    +0.075 C 
ATOM     10  C   UNL     1      -4.336   3.378 -24.213  0.00  0.00    +0.014 C 
ATOM     11  O   UNL     1      -2.935   3.756 -27.421  0.00  0.00    -0.297 OA
ATOM     12  C   UNL     1      -0.796   2.429 -23.228  0.00  0.00    -0.034 A 
ATOM     13  C   UNL     1       0.321   2.331 -23.877  0.00  0.00    +0.051 A 
ATOM     14  C   UNL     1       1.388   1.978 -23.260  0.00  0.00    +0.131 A 
ATOM     15  C   UNL     1       1.349   1.720 -21.991  0.00  0.00    +0.059 A 
ATOM     16 BR   UNL     1       2.496   1.380 -21.518  0.00  0.00    -0.047 Br
ATOM     17  C   UNL     1       0.226   1.819 -21.337  0.00  0.00    +0.023 A 
ATOM     18  C   UNL     1      -0.848   2.171 -21.945  0.00  0.00    -0.041 A 
ATOM     19  C   UNL     1      -1.914   2.275 -21.371  0.00  0.00    +0.058 C 
ATOM     20  C   UNL     1      -3.309   3.025 -23.560  0.00  0.00    +0.021 C 
ATOM     21  C   UNL     1      -3.231   2.731 -22.234  0.00  0.00    +0.084 C 
ENDROOT
BRANCH  14  22
ATOM     22  O   UNL     1       2.482   1.907 -24.016  0.00  0.00    -0.506 OA
ATOM     23  H   UNL     1       2.455   2.195 -24.907  0.00  0.00    +0.292 HD
ENDBRANCH  14  22
TORSDOF 1
ENDMDL
MODEL 4
REMARK VINA RESULT:   -10.093      2.153      4.547
REMARK INTER + INTRA:         -10.388
REMARK INTER:                 -10.388
REMARK INTRA:                   0.000
REMARK UNBOUND:                 0.000
REMARK  Name = O=CN1CC[C@@]23CC(=O)CC[C@H]2[C@H]1Cc1cc(Br)c(O)cc13                  ZINC000100393521
REMARK  1 active torsions:
REMARK  status: ('A' for Active; 'I' for Inactive)
REMARK    1  A    between atoms: C_19  and  O_20
REMARK                            x       y       z     vdW  Elec       q    Type
REMARK                         _______ _______ _______ _____ _____    ______ ____
ROOT
ATOM      1  O   UNL     1      -1.906   3.749 -26.273  0.00  0.00    -0.279 OA
ATOM      2  C   UNL     1      -1.128   3.382 -25.506  0.00  0.00    +0.328 C 
ATOM      3  N   UNL     1      -0.708   2.897 -24.075  0.00  0.00    -0.300 N 
ATOM      4  C   UNL     1      -0.282   2.518 -23.026  0.00  0.00    +0.109 C 
ATOM      5  C   UNL     1      -0.919   2.348 -21.990  0.00  0.00    +0.031 C 
ATOM      6  C   UNL     1      -1.853   2.524 -21.972  0.00  0.00    +0.009 C 
ATOM      7  C   UNL     1      -2.586   2.376 -20.948  0.00  0.00    +0.086 C 
ATOM      8  C   UNL     1      -3.856   2.643 -21.022  0.00  0.00    +0.134 C 
ATOM      9  C   UNL     1      -4.402   3.068 -22.152  0.00  0.00    +0.075 C 
ATOM     10  C   UNL     1      -3.675   3.232 -23.232  0.00  0.00    +0.014 C 
ATOM     11  O   UNL     1      -4.534   2.459 -19.906  0.00  0.00    -0.297 OA
ATOM     12  C   UNL     1      -0.181   2.244 -22.126  0.00  0.00    -0.034 A 
ATOM     13  C   UNL     1       0.322   1.831 -21.007  0.00  0.00    +0.051 A 
ATOM     14  C   UNL     1       1.575   1.567 -20.931  0.00  0.00    +0.131 A 
ATOM     15  C   UNL     1       2.333   1.714 -21.970  0.00  0.00    +0.059 A 
ATOM     16 BR   UNL     1       3.562   1.410 -21.736  0.00  0.00    -0.047 Br
ATOM     17  C   UNL     1       1.827   2.130 -23.097  0.00  0.00    +0.023 A 
ATOM     18  C   UNL     1       0.575   2.397 -23.184  0.00  0.00    -0.041 A 
ATOM     19  C   UNL     1       0.065   2.787 -24.216  0.00  0.00    +0.058 C 
ATOM     20  C   UNL     1      -2.433   2.985 -23.206  0.00  0.00    +0.021 C 
ATOM     21  C   UNL     1      -1.544   3.102 -24.228  0.00  0.00    +0.084 C 
ENDROOT
BRANCH  14  22
ATOM     22  O   UNL     1       1.994   1.149 -19.738  0.00  0.00    -0.506 OA
ATOM     23  H   UNL     1       2.616   0.452 -19.678  0.00  0.00    +0.292 HD
ENDBRANCH  14  22
TORSDOF 1
ENDMDL
MODEL 5
REMARK VINA RESULT:    -9.914      2.380      4.657
REMARK INTER + INTRA:         -10.204
REMARK INTER:                 -10.204
REMARK INTRA:                   0.000
REMARK UNBOUND:                 0.000
REMARK  Name = O=CN1CC[C@@]23CC(=O)CC[C@H]2[C@H]1Cc1cc(Br)c(O)cc13                  ZINC000100393521
REMARK  1 active torsions:
REMARK  status: ('A' for Active; 'I' for Inactive)
REMARK    1  A    between atoms: C_19  and  O_20
REMARK                            x       y       z     vdW  Elec       q    Type
REMARK                         _______ _______ _______ _____ _____    ______ ____
ROOT
ATOM      1  O   UNL     1      -3.977   4.139 -26.582  0.00  0.00    -0.279 OA
ATOM      2  C   UNL     1      -2.949   3.888 -26.126  0.00  0.00    +0.328 C 
ATOM      3  N   UNL     1      -2.022   3.463 -24.934  0.00  0.00    -0.300 N 
ATOM      4  C   UNL     1      -1.230   3.146 -24.099  0.00  0.00    +0.109 C 
ATOM      5  C   UNL     1      -1.464   2.876 -22.924  0.00  0.00    +0.031 C 
ATOM      6  C   UNL     1      -2.357   2.910 -22.598  0.00  0.00    +0.009 C 
ATOM      7  C   UNL     1      -2.688   2.648 -21.403  0.00  0.00    +0.086 C 
ATOM      8  C   UNL     1      -3.938   2.721 -21.051  0.00  0.00    +0.134 C 
ATOM      9  C   UNL     1      -4.875   3.066 -21.922  0.00  0.00    +0.075 C 
ATOM     10  C   UNL     1      -4.569   3.344 -23.166  0.00  0.00    +0.014 C 
ATOM     11  O   UNL     1      -4.182   2.431 -19.788  0.00  0.00    -0.297 OA
ATOM     12  C   UNL     1      -0.804   2.885 -23.296  0.00  0.00    -0.034 A 
ATOM     13  C   UNL     1       0.089   2.545 -22.421  0.00  0.00    +0.051 A 
ATOM     14  C   UNL     1       1.322   2.472 -22.766  0.00  0.00    +0.131 A 
ATOM     15  C   UNL     1       1.673   2.737 -23.984  0.00  0.00    +0.059 A 
ATOM     16 BR   UNL     1       2.940   2.620 -24.173  0.00  0.00    -0.047 Br
ATOM     17  C   UNL     1       0.775   3.079 -24.864  0.00  0.00    +0.023 A 
ATOM     18  C   UNL     1      -0.462   3.156 -24.530  0.00  0.00    -0.041 A 
ATOM     19  C   UNL     1      -1.329   3.471 -25.321  0.00  0.00    +0.058 C 
ATOM     20  C   UNL     1      -3.364   3.286 -23.554  0.00  0.00    +0.021 C 
ATOM     21  C   UNL     1      -2.882   3.541 -24.799  0.00  0.00    +0.084 C 
ENDROOT
BRANCH  14  22
ATOM     22  O   UNL     1       2.160   2.114 -21.795  0.00  0.00    -0.506 OA
ATOM     23  H   UNL     1       2.710   2.756 -21.391  0.00  0.00    +0.292 HD
ENDBRANCH  14  22
TORSDOF 1
ENDMDL
MODEL 6
REMARK VINA RESULT:    -9.113      2.133      2.806
REMARK INTER + INTRA:          -9.379
REMARK INTER:                  -9.379
REMARK INTRA:                   0.000
REMARK UNBOUND:                 0.000
REMARK  Name = O=CN1CC[C@@]23CC(=O)CC[C@H]2[C@H]1Cc1cc(Br)c(O)cc13                  ZINC000100393521
REMARK  1 active torsions:
REMARK  status: ('A' for Active; 'I' for Inactive)
REMARK    1  A    between atoms: C_19  and  O_20
REMARK                            x       y       z     vdW  Elec       q    Type
REMARK                         _______ _______ _______ _____ _____    ______ ____
ROOT
ATOM      1  O   UNL     1      -2.780   3.433 -27.858  0.00  0.00    -0.279 OA
ATOM      2  C   UNL     1      -3.086   3.376 -26.748  0.00  0.00    +0.328 C 
ATOM      3  N   UNL     1      -2.767   3.418 -25.213  0.00  0.00    -0.300 N 
ATOM      4  C   UNL     1      -2.634   3.431 -24.026  0.00  0.00    +0.109 C 
ATOM      5  C   UNL     1      -1.589   3.597 -23.403  0.00  0.00    +0.031 C 
ATOM      6  C   UNL     1      -0.773   3.733 -23.871  0.00  0.00    +0.009 C 
ATOM      7  C   UNL     1       0.349   3.912 -23.309  0.00  0.00    +0.086 C 
ATOM      8  C   UNL     1       1.412   4.090 -24.036  0.00  0.00    +0.134 C 
ATOM      9  C   UNL     1       1.344   4.088 -25.359  0.00  0.00    +0.075 C 
ATOM     10  C   UNL     1       0.201   3.906 -25.976  0.00  0.00    +0.014 C 
ATOM     11  O   UNL     1       2.530   4.268 -23.360  0.00  0.00    -0.297 OA
ATOM     12  C   UNL     1      -2.292   3.481 -23.146  0.00  0.00    -0.034 A 
ATOM     13  C   UNL     1      -2.193   3.489 -21.855  0.00  0.00    +0.051 A 
ATOM     14  C   UNL     1      -3.240   3.313 -21.135  0.00  0.00    +0.131 A 
ATOM     15  C   UNL     1      -4.392   3.130 -21.698  0.00  0.00    +0.059 A 
ATOM     16 BR   UNL     1      -5.342   2.969 -20.845  0.00  0.00    -0.047 Br
ATOM     17  C   UNL     1      -4.492   3.122 -22.997  0.00  0.00    +0.023 A 
ATOM     18  C   UNL     1      -3.451   3.296 -23.727  0.00  0.00    -0.041 A 
ATOM     19  C   UNL     1      -3.502   3.296 -24.941  0.00  0.00    +0.058 C 
ATOM     20  C   UNL     1      -0.861   3.729 -25.307  0.00  0.00    +0.021 C 
ATOM     21  C   UNL     1      -2.117   3.527 -25.787  0.00  0.00    +0.084 C 
ENDROOT
BRANCH  14  22
ATOM     22  O   UNL     1      -3.033   3.338 -19.820  0.00  0.00    -0.506 OA
ATOM     23  H   UNL     1      -2.552   4.043 -19.434  0.00  0.00    +0.292 HD
ENDBRANCH  14  22
TORSDOF 1
ENDMDL
MODEL 7
REMARK VINA RESULT:    -8.722      3.074      5.378
REMARK INTER + INTRA:          -8.977
REMARK INTER:                  -8.977
REMARK INTRA:                   0.000
REMARK UNBOUND:                 0.000
REMARK  Name = O=CN1CC[C@@]23CC(=O)CC[C@H]2[C@H]1Cc1cc(Br)c(O)cc13                  ZINC000100393521
REMARK  1 active torsions:
REMARK  status: ('A' for Active; 'I' for Inactive)
REMARK    1  A    between atoms: C_19  and  O_20
REMARK                            x       y       z     vdW  Elec       q    Type
REMARK                         _______ _______ _______ _____ _____    ______ ____
ROOT
ATOM      1  O   UNL     1       4.924  -0.183 -20.260  0.00  0.00    -0.279 OA
ATOM      2  C   UNL     1       4.051   0.372 -20.768  0.00  0.00    +0.328 C 
ATOM      3  N   UNL     1       3.456   1.557 -21.605  0.00  0.00    -0.300 N 
ATOM      4  C   UNL     1       2.901   2.409 -22.232  0.00  0.00    +0.109 C 
ATOM      5  C   UNL     1       3.413   3.404 -22.738  0.00  0.00    +0.031 C 
ATOM      6  C   UNL     1       4.347   3.555 -22.649  0.00  0.00    +0.009 C 
ATOM      7  C   UNL     1       4.957   4.553 -23.138  0.00  0.00    +0.086 C 
ATOM      8  C   UNL     1       6.240   4.673 -22.962  0.00  0.00    +0.134 C 
ATOM      9  C   UNL     1       6.924   3.767 -22.278  0.00  0.00    +0.075 C 
ATOM     10  C   UNL     1       6.327   2.722 -21.757  0.00  0.00    +0.014 C 
ATOM     11  O   UNL     1       6.783   5.743 -23.508  0.00  0.00    -0.297 OA
ATOM     12  C   UNL     1       2.690   3.178 -22.741  0.00  0.00    -0.034 A 
ATOM     13  C   UNL     1       2.049   4.079 -23.414  0.00  0.00    +0.051 A 
ATOM     14  C   UNL     1       0.784   3.964 -23.589  0.00  0.00    +0.131 A 
ATOM     15  C   UNL     1       0.150   2.949 -23.094  0.00  0.00    +0.059 A 
ATOM     16 BR   UNL     1      -1.110   2.974 -23.354  0.00  0.00    -0.047 Br
ATOM     17  C   UNL     1       0.794   2.041 -22.417  0.00  0.00    +0.023 A 
ATOM     18  C   UNL     1       2.061   2.147 -22.235  0.00  0.00    -0.041 A 
ATOM     19  C   UNL     1       2.698   1.323 -21.610  0.00  0.00    +0.058 C 
ATOM     20  C   UNL     1       5.079   2.564 -21.904  0.00  0.00    +0.021 C 
ATOM     21  C   UNL     1       4.312   1.545 -21.432  0.00  0.00    +0.084 C 
ENDROOT
BRANCH  14  22
ATOM     22  O   UNL     1       0.218   4.942 -24.295  0.00  0.00    -0.506 OA
ATOM     23  H   UNL     1       0.749   5.508 -24.820  0.00  0.00    +0.292 HD
ENDBRANCH  14  22
TORSDOF 1
ENDMDL
MODEL 8
REMARK VINA RESULT:    -8.092      2.405      3.022
REMARK INTER + INTRA:          -8.328
REMARK INTER:                  -8.328
REMARK INTRA:                   0.000
REMARK UNBOUND:                 0.000
REMARK  Name = O=CN1CC[C@@]23CC(=O)CC[C@H]2[C@H]1Cc1cc(Br)c(O)cc13                  ZINC000100393521
REMARK  1 active torsions:
REMARK  status: ('A' for Active; 'I' for Inactive)
REMARK    1  A    between atoms: C_19  and  O_20
REMARK                            x       y       z     vdW  Elec       q    Type
REMARK                         _______ _______ _______ _____ _____    ______ ____
ROOT
ATOM      1  O   UNL     1       3.738   6.643 -22.586  0.00  0.00    -0.279 OA
ATOM      2  C   UNL     1       2.712   6.217 -22.893  0.00  0.00    +0.328 C 
ATOM      3  N   UNL     1       1.718   5.030 -23.143  0.00  0.00    -0.300 N 
ATOM      4  C   UNL     1       0.884   4.204 -23.363  0.00  0.00    +0.109 C 
ATOM      5  C   UNL     1       1.003   2.987 -23.248  0.00  0.00    +0.031 C 
ATOM      6  C   UNL     1       1.828   2.615 -22.957  0.00  0.00    +0.009 C 
ATOM      7  C   UNL     1       2.038   1.374 -22.811  0.00  0.00    +0.086 C 
ATOM      8  C   UNL     1       3.202   0.961 -22.406  0.00  0.00    +0.134 C 
ATOM      9  C   UNL     1       4.178   1.818 -22.142  0.00  0.00    +0.075 C 
ATOM     10  C   UNL     1       3.997   3.109 -22.281  0.00  0.00    +0.014 C 
ATOM     11  O   UNL     1       3.323  -0.346 -22.285  0.00  0.00    -0.297 OA
ATOM     12  C   UNL     1       0.404   3.395 -23.469  0.00  0.00    -0.034 A 
ATOM     13  C   UNL     1      -0.529   2.533 -23.719  0.00  0.00    +0.051 A 
ATOM     14  C   UNL     1      -1.679   2.938 -24.118  0.00  0.00    +0.131 A 
ATOM     15  C   UNL     1      -1.905   4.203 -24.271  0.00  0.00    +0.059 A 
ATOM     16 BR   UNL     1      -3.102   4.450 -24.676  0.00  0.00    -0.047 Br
ATOM     17  C   UNL     1      -0.966   5.071 -24.019  0.00  0.00    +0.023 A 
ATOM     18  C   UNL     1       0.188   4.678 -23.619  0.00  0.00    -0.041 A 
ATOM     19  C   UNL     1       1.089   5.455 -23.374  0.00  0.00    +0.058 C 
ATOM     20  C   UNL     1       2.879   3.557 -22.673  0.00  0.00    +0.021 C 
ATOM     21  C   UNL     1       2.529   4.856 -22.868  0.00  0.00    +0.084 C 
ENDROOT
BRANCH  14  22
ATOM     22  O   UNL     1      -2.569   1.974 -24.348  0.00  0.00    -0.506 OA
ATOM     23  H   UNL     1      -3.371   2.173 -24.789  0.00  0.00    +0.292 HD
ENDBRANCH  14  22
TORSDOF 1
ENDMDL
MODEL 9
REMARK VINA RESULT:    -8.010      4.544      6.066
REMARK INTER + INTRA:          -8.244
REMARK INTER:                  -8.244
REMARK INTRA:                   0.000
REMARK UNBOUND:                 0.000
REMARK  Name = O=CN1CC[C@@]23CC(=O)CC[C@H]2[C@H]1Cc1cc(Br)c(O)cc13                  ZINC000100393521
REMARK  1 active torsions:
REMARK  status: ('A' for Active; 'I' for Inactive)
REMARK    1  A    between atoms: C_19  and  O_20
REMARK                            x       y       z     vdW  Elec       q    Type
REMARK                         _______ _______ _______ _____ _____    ______ ____
ROOT
ATOM      1  O   UNL     1       7.332   2.908 -23.119  0.00  0.00    -0.279 OA
ATOM      2  C   UNL     1       6.199   3.033 -23.292  0.00  0.00    +0.328 C 
ATOM      3  N   UNL     1       4.868   3.861 -23.241  0.00  0.00    -0.300 N 
ATOM      4  C   UNL     1       3.802   4.400 -23.246  0.00  0.00    +0.109 C 
ATOM      5  C   UNL     1       3.551   5.542 -22.869  0.00  0.00    +0.031 C 
ATOM      6  C   UNL     1       4.247   6.093 -22.530  0.00  0.00    +0.009 C 
ATOM      7  C   UNL     1       4.078   7.281 -22.120  0.00  0.00    +0.086 C 
ATOM      8  C   UNL     1       5.094   7.958 -21.672  0.00  0.00    +0.134 C 
ATOM      9  C   UNL     1       6.308   7.427 -21.635  0.00  0.00    +0.075 C 
ATOM     10  C   UNL     1       6.520   6.201 -22.050  0.00  0.00    +0.014 C 
ATOM     11  O   UNL     1       4.818   9.183 -21.269  0.00  0.00    -0.297 OA
ATOM     12  C   UNL     1       3.089   5.014 -23.155  0.00  0.00    -0.034 A 
ATOM     13  C   UNL     1       1.915   5.561 -23.178  0.00  0.00    +0.051 A 
ATOM     14  C   UNL     1       0.912   4.896 -23.620  0.00  0.00    +0.131 A 
ATOM     15  C   UNL     1       1.072   3.682 -24.041  0.00  0.00    +0.059 A 
ATOM     16 BR   UNL     1      -0.025   3.149 -24.451  0.00  0.00    -0.047 Br
ATOM     17  C   UNL     1       2.252   3.131 -24.018  0.00  0.00    +0.023 A 
ATOM     18  C   UNL     1       3.264   3.788 -23.578  0.00  0.00    -0.041 A 
ATOM     19  C   UNL     1       4.381   3.310 -23.540  0.00  0.00    +0.058 C 
ATOM     20  C   UNL     1       5.560   5.505 -22.495  0.00  0.00    +0.021 C 
ATOM     21  C   UNL     1       5.609   4.228 -22.961  0.00  0.00    +0.084 C 
ENDROOT
BRANCH  14  22
ATOM     22  O   UNL     1      -0.250   5.546 -23.602  0.00  0.00    -0.506 OA
ATOM     23  H   UNL     1      -0.291   6.424 -23.278  0.00  0.00    +0.292 HD
ENDBRANCH  14  22
TORSDOF 1
ENDMDL
