MODEL 1
REMARK VINA RESULT:   -10.386      0.000      0.000
REMARK INTER + INTRA:         -12.399
REMARK INTER:                 -13.095
REMARK INTRA:                   0.696
REMARK UNBOUND:                 0.720
REMARK  Name = COCO[C@@H]1C=C2[C@H]3Cc4ccc(OC)c5c4[C@@]2(CCN3C)[C@](C)(O5)[C@@H]1O  ZINC000253505464
REMARK  9 active torsions:
REMARK  status: ('A' for Active; 'I' for Inactive)
REMARK    1  A    between atoms: C_1  and  O_2
REMARK    2  A    between atoms: O_2  and  C_3
REMARK    3  A    between atoms: C_3  and  O_4
REMARK    4  A    between atoms: O_4  and  C_5
REMARK    5  A    between atoms: C_13  and  O_14
REMARK    6  A    between atoms: O_14  and  C_15
REMARK    7  A    between atoms: N_21  and  C_22
REMARK    8  A    between atoms: C_23  and  C_24
REMARK    9  A    between atoms: C_26  and  O_27
REMARK                            x       y       z     vdW  Elec       q    Type
REMARK                         _______ _______ _______ _____ _____    ______ ____
ROOT
ATOM      1  C   UNL     1       0.971   2.216 -22.660  0.00  0.00    +0.176 C 
ATOM      2  C   UNL     1       0.598   2.731 -23.746  0.00  0.00    +0.013 C 
ATOM      3  C   UNL     1      -0.623   3.033 -23.923  0.00  0.00    -0.009 C 
ATOM      4  C   UNL     1      -0.993   3.553 -25.022  0.00  0.00    +0.096 C 
ATOM      5  C   UNL     1      -2.201   3.852 -25.198  0.00  0.00    +0.094 C 
ATOM      6  C   UNL     1      -3.055   3.633 -24.271  0.00  0.00    -0.034 A 
ATOM      7  C   UNL     1      -4.267   3.933 -24.447  0.00  0.00    +0.008 A 
ATOM      8  C   UNL     1      -5.103   3.717 -23.534  0.00  0.00    +0.050 A 
ATOM      9  C   UNL     1      -4.737   3.197 -22.433  0.00  0.00    +0.162 A 
ATOM     10  C   UNL     1      -3.512   2.895 -22.259  0.00  0.00    +0.167 A 
ATOM     11  O   UNL     1      -2.480   2.317 -21.323  0.00  0.00    -0.478 OA
ATOM     12  C   UNL     1      -1.080   2.293 -21.907  0.00  0.00    +0.150 C 
ATOM     13  C   UNL     1      -0.994   1.804 -20.751  0.00  0.00    +0.060 C 
ATOM     14  C   UNL     1      -2.670   3.115 -23.182  0.00  0.00    +0.016 A 
ATOM     15  N   UNL     1       0.404   3.251 -24.926  0.00  0.00    +0.239 N 
ATOM     16  H   UNL     1       1.056   3.439 -25.686  0.00  0.00    +0.204 HD
ATOM     17  C   UNL     1       1.195   3.489 -25.872  0.00  0.00    +0.191 C 
ATOM     18  C   UNL     1       0.851   2.670 -23.712  0.00  0.00    +0.133 C 
ATOM     19  C   UNL     1      -0.117   2.437 -22.701  0.00  0.00    +0.071 C 
ATOM     20  C   UNL     1      -1.462   2.817 -23.011  0.00  0.00    +0.072 C 
ATOM     21  C   UNL     1       0.129   1.996 -21.736  0.00  0.00    +0.192 C 
ENDROOT
BRANCH   9  22
ATOM     22  O   UNL     1      -5.577   2.982 -21.523  0.00  0.00    -0.491 OA
ATOM     23  C   UNL     1      -6.733   2.580 -21.814  0.00  0.00    +0.277 C 
ENDBRANCH   9  22
BRANCH  21  24
ATOM     24  O   UNL     1       0.504   1.480 -20.650  0.00  0.00    -0.385 OA
ATOM     25  H   UNL     1       1.224   2.010 -20.273  0.00  0.00    +0.210 HD
ENDBRANCH  21  24
BRANCH   1  26
ATOM     26  O   UNL     1       2.182   1.919 -22.491  0.00  0.00    -0.344 OA
BRANCH  26  27
ATOM     27  C   UNL     1       2.595   0.764 -22.776  0.00  0.00    +0.323 C 
BRANCH  27  29
ATOM     28  C   UNL     1       3.867   0.403 -21.041  0.00  0.00    +0.196 C 
ATOM     29  O   UNL     1       3.004  -0.001 -21.863  0.00  0.00    -0.357 OA
ENDBRANCH  27  29
ENDBRANCH  26  27
ENDBRANCH   1  26
TORSDOF 5
ENDMDL
MODEL 2
REMARK VINA RESULT:   -10.049      1.941      3.219
REMARK INTER + INTRA:         -11.972
REMARK INTER:                 -12.744
REMARK INTRA:                   0.772
REMARK UNBOUND:                 0.720
REMARK  Name = COCO[C@@H]1C=C2[C@H]3Cc4ccc(OC)c5c4[C@@]2(CCN3C)[C@](C)(O5)[C@@H]1O  ZINC000253505464
REMARK  9 active torsions:
REMARK  status: ('A' for Active; 'I' for Inactive)
REMARK    1  A    between atoms: C_1  and  O_2
REMARK    2  A    between atoms: O_2  and  C_3
REMARK    3  A    between atoms: C_3  and  O_4
REMARK    4  A    between atoms: O_4  and  C_5
REMARK    5  A    between atoms: C_13  and  O_14
REMARK    6  A    between atoms: O_14  and  C_15
REMARK    7  A    between atoms: N_21  and  C_22
REMARK    8  A    between atoms: C_23  and  C_24
REMARK    9  A    between atoms: C_26  and  O_27
REMARK                            x       y       z     vdW  Elec       q    Type
REMARK                         _______ _______ _______ _____ _____    ______ ____
ROOT
ATOM      1  C   UNL     1       1.783   2.712 -24.046  0.00  0.00    +0.176 C 
ATOM      2  C   UNL     1       1.437   2.294 -22.910  0.00  0.00    +0.013 C 
ATOM      3  C   UNL     1       0.223   2.371 -22.546  0.00  0.00    -0.009 C 
ATOM      4  C   UNL     1      -0.119   1.948 -21.396  0.00  0.00    +0.096 C 
ATOM      5  C   UNL     1      -1.320   2.023 -21.034  0.00  0.00    +0.094 C 
ATOM      6  C   UNL     1      -2.195   2.525 -21.821  0.00  0.00    -0.034 A 
ATOM      7  C   UNL     1      -3.400   2.602 -21.459  0.00  0.00    +0.008 A 
ATOM      8  C   UNL     1      -4.257   3.096 -22.235  0.00  0.00    +0.050 A 
ATOM      9  C   UNL     1      -3.918   3.520 -23.384  0.00  0.00    +0.162 A 
ATOM     10  C   UNL     1      -2.700   3.442 -23.747  0.00  0.00    +0.167 A 
ATOM     11  O   UNL     1      -1.693   3.713 -24.837  0.00  0.00    -0.478 OA
ATOM     12  C   UNL     1      -0.282   3.289 -24.474  0.00  0.00    +0.150 C 
ATOM     13  C   UNL     1      -0.224   3.771 -25.635  0.00  0.00    +0.060 C 
ATOM     14  C   UNL     1      -1.837   2.942 -22.962  0.00  0.00    +0.016 A 
ATOM     15  N   UNL     1       1.272   1.815 -21.710  0.00  0.00    +0.239 N 
ATOM     16  H   UNL     1       1.941   1.409 -21.056  0.00  0.00    +0.204 HD
ATOM     17  C   UNL     1       2.084   1.313 -20.894  0.00  0.00    +0.191 C 
ATOM     18  C   UNL     1       1.688   2.277 -22.983  0.00  0.00    +0.133 C 
ATOM     19  C   UNL     1       0.699   2.830 -23.836  0.00  0.00    +0.071 C 
ATOM     20  C   UNL     1      -0.636   2.865 -23.320  0.00  0.00    +0.072 C 
ATOM     21  C   UNL     1       0.920   3.211 -24.833  0.00  0.00    +0.192 C 
ENDROOT
BRANCH   9  22
ATOM     22  O   UNL     1      -4.779   4.013 -24.156  0.00  0.00    -0.491 OA
ATOM     23  C   UNL     1      -4.879   3.594 -25.338  0.00  0.00    +0.277 C 
ENDBRANCH   9  22
BRANCH  21  24
ATOM     24  O   UNL     1       1.269   3.628 -25.969  0.00  0.00    -0.385 OA
ATOM     25  H   UNL     1       1.141   4.588 -26.014  0.00  0.00    +0.210 HD
ENDBRANCH  21  24
BRANCH   1  26
ATOM     26  O   UNL     1       2.987   2.633 -24.403  0.00  0.00    -0.344 OA
BRANCH  26  27
ATOM     27  C   UNL     1       3.877   3.256 -23.766  0.00  0.00    +0.323 C 
BRANCH  27  29
ATOM     28  C   UNL     1       5.407   2.385 -22.480  0.00  0.00    +0.196 C 
ATOM     29  O   UNL     1       5.020   2.748 -23.620  0.00  0.00    -0.357 OA
ENDBRANCH  27  29
ENDBRANCH  26  27
ENDBRANCH   1  26
TORSDOF 5
ENDMDL
MODEL 3
REMARK VINA RESULT:    -9.920      2.037      6.424
REMARK INTER + INTRA:         -11.810
REMARK INTER:                 -12.457
REMARK INTRA:                   0.647
REMARK UNBOUND:                 0.720
REMARK  Name = COCO[C@@H]1C=C2[C@H]3Cc4ccc(OC)c5c4[C@@]2(CCN3C)[C@](C)(O5)[C@@H]1O  ZINC000253505464
REMARK  9 active torsions:
REMARK  status: ('A' for Active; 'I' for Inactive)
REMARK    1  A    between atoms: C_1  and  O_2
REMARK    2  A    between atoms: O_2  and  C_3
REMARK    3  A    between atoms: C_3  and  O_4
REMARK    4  A    between atoms: O_4  and  C_5
REMARK    5  A    between atoms: C_13  and  O_14
REMARK    6  A    between atoms: O_14  and  C_15
REMARK    7  A    between atoms: N_21  and  C_22
REMARK    8  A    between atoms: C_23  and  C_24
REMARK    9  A    between atoms: C_26  and  O_27
REMARK                            x       y       z     vdW  Elec       q    Type
REMARK                         _______ _______ _______ _____ _____    ______ ____
ROOT
ATOM      1  C   UNL     1      -1.395   3.335 -24.500  0.00  0.00    +0.176 C 
ATOM      2  C   UNL     1      -1.546   2.861 -23.345  0.00  0.00    +0.013 C 
ATOM      3  C   UNL     1      -0.536   2.473 -22.679  0.00  0.00    -0.009 C 
ATOM      4  C   UNL     1      -0.695   1.994 -21.512  0.00  0.00    +0.096 C 
ATOM      5  C   UNL     1       0.303   1.610 -20.852  0.00  0.00    +0.094 C 
ATOM      6  C   UNL     1       1.476   1.702 -21.354  0.00  0.00    -0.034 A 
ATOM      7  C   UNL     1       2.478   1.317 -20.693  0.00  0.00    +0.008 A 
ATOM      8  C   UNL     1       3.629   1.408 -21.190  0.00  0.00    +0.050 A 
ATOM      9  C   UNL     1       3.792   1.886 -22.356  0.00  0.00    +0.162 A 
ATOM     10  C   UNL     1       2.777   2.275 -23.022  0.00  0.00    +0.167 A 
ATOM     11  O   UNL     1       2.274   2.874 -24.311  0.00  0.00    -0.478 OA
ATOM     12  C   UNL     1       0.767   3.047 -24.349  0.00  0.00    +0.150 C 
ATOM     13  C   UNL     1       1.204   3.469 -25.451  0.00  0.00    +0.060 C 
ATOM     14  C   UNL     1       1.617   2.181 -22.518  0.00  0.00    +0.016 A 
ATOM     15  N   UNL     1      -1.896   2.401 -22.177  0.00  0.00    +0.239 N 
ATOM     16  H   UNL     1      -2.815   2.313 -21.744  0.00  0.00    +0.204 HD
ATOM     17  C   UNL     1      -3.021   2.286 -21.630  0.00  0.00    +0.191 C 
ATOM     18  C   UNL     1      -1.755   2.940 -23.480  0.00  0.00    +0.133 C 
ATOM     19  C   UNL     1      -0.444   3.030 -24.014  0.00  0.00    +0.071 C 
ATOM     20  C   UNL     1       0.617   2.563 -23.174  0.00  0.00    +0.072 C 
ATOM     21  C   UNL     1      -0.234   3.429 -25.006  0.00  0.00    +0.192 C 
ENDROOT
BRANCH   9  22
ATOM     22  O   UNL     1       4.944   1.976 -22.850  0.00  0.00    -0.491 OA
ATOM     23  C   UNL     1       5.765   2.809 -22.388  0.00  0.00    +0.277 C 
ENDBRANCH   9  22
BRANCH  21  24
ATOM     24  O   UNL     1      -0.086   3.905 -26.163  0.00  0.00    -0.385 OA
ATOM     25  H   UNL     1       0.456   4.707 -26.115  0.00  0.00    +0.210 HD
ENDBRANCH  21  24
BRANCH   1  26
ATOM     26  O   UNL     1      -2.399   3.718 -25.156  0.00  0.00    -0.344 OA
BRANCH  26  27
ATOM     27  C   UNL     1      -3.105   4.670 -24.732  0.00  0.00    +0.323 C 
BRANCH  27  29
ATOM     28  C   UNL     1      -5.183   4.127 -24.357  0.00  0.00    +0.196 C 
ATOM     29  O   UNL     1      -4.323   4.738 -25.043  0.00  0.00    -0.357 OA
ENDBRANCH  27  29
ENDBRANCH  26  27
ENDBRANCH   1  26
TORSDOF 5
ENDMDL
MODEL 4
REMARK VINA RESULT:    -9.481      1.260      5.607
REMARK INTER + INTRA:         -11.255
REMARK INTER:                 -11.924
REMARK INTRA:                   0.669
REMARK UNBOUND:                 0.720
REMARK  Name = COCO[C@@H]1C=C2[C@H]3Cc4ccc(OC)c5c4[C@@]2(CCN3C)[C@](C)(O5)[C@@H]1O  ZINC000253505464
REMARK  9 active torsions:
REMARK  status: ('A' for Active; 'I' for Inactive)
REMARK    1  A    between atoms: C_1  and  O_2
REMARK    2  A    between atoms: O_2  and  C_3
REMARK    3  A    between atoms: C_3  and  O_4
REMARK    4  A    between atoms: O_4  and  C_5
REMARK    5  A    between atoms: C_13  and  O_14
REMARK    6  A    between atoms: O_14  and  C_15
REMARK    7  A    between atoms: N_21  and  C_22
REMARK    8  A    between atoms: C_23  and  C_24
REMARK    9  A    between atoms: C_26  and  O_27
REMARK                            x       y       z     vdW  Elec       q    Type
REMARK                         _______ _______ _______ _____ _____    ______ ____
ROOT
ATOM      1  C   UNL     1      -2.586   2.615 -23.289  0.00  0.00    +0.176 C 
ATOM      2  C   UNL     1      -1.971   2.969 -24.327  0.00  0.00    +0.013 C 
ATOM      3  C   UNL     1      -0.701   2.979 -24.343  0.00  0.00    -0.009 C 
ATOM      4  C   UNL     1      -0.085   3.339 -25.396  0.00  0.00    +0.096 C 
ATOM      5  C   UNL     1       1.171   3.349 -25.414  0.00  0.00    +0.094 C 
ATOM      6  C   UNL     1       1.828   2.999 -24.373  0.00  0.00    -0.034 A 
ATOM      7  C   UNL     1       3.088   3.009 -24.390  0.00  0.00    +0.008 A 
ATOM      8  C   UNL     1       3.730   2.664 -23.365  0.00  0.00    +0.050 A 
ATOM      9  C   UNL     1       3.119   2.305 -22.311  0.00  0.00    +0.162 A 
ATOM     10  C   UNL     1       1.845   2.295 -22.298  0.00  0.00    +0.167 A 
ATOM     11  O   UNL     1       0.598   2.019 -21.496  0.00  0.00    -0.478 OA
ATOM     12  C   UNL     1      -0.685   2.275 -22.265  0.00  0.00    +0.150 C 
ATOM     13  C   UNL     1      -1.026   1.885 -21.118  0.00  0.00    +0.060 C 
ATOM     14  C   UNL     1       1.199   2.644 -23.333  0.00  0.00    +0.016 A 
ATOM     15  N   UNL     1      -1.515   3.363 -25.483  0.00  0.00    +0.239 N 
ATOM     16  H   UNL     1      -2.004   3.648 -26.330  0.00  0.00    +0.204 HD
ATOM     17  C   UNL     1      -2.104   3.717 -26.534  0.00  0.00    +0.191 C 
ATOM     18  C   UNL     1      -2.233   2.968 -24.326  0.00  0.00    +0.133 C 
ATOM     19  C   UNL     1      -1.481   2.584 -23.186  0.00  0.00    +0.071 C 
ATOM     20  C   UNL     1      -0.056   2.635 -23.320  0.00  0.00    +0.072 C 
ATOM     21  C   UNL     1      -1.941   2.265 -22.252  0.00  0.00    +0.192 C 
ENDROOT
BRANCH   9  22
ATOM     22  O   UNL     1       3.765   1.961 -21.289  0.00  0.00    -0.491 OA
ATOM     23  C   UNL     1       3.901   0.742 -21.010  0.00  0.00    +0.277 C 
ENDBRANCH   9  22
BRANCH  21  24
ATOM     24  O   UNL     1      -2.560   1.911 -21.214  0.00  0.00    -0.385 OA
ATOM     25  H   UNL     1      -3.414   1.527 -21.462  0.00  0.00    +0.210 HD
ENDBRANCH  21  24
BRANCH   1  26
ATOM     26  O   UNL     1      -3.845   2.606 -23.278  0.00  0.00    -0.344 OA
BRANCH  26  27
ATOM     27  C   UNL     1      -4.484   3.691 -23.302  0.00  0.00    +0.323 C 
BRANCH  27  29
ATOM     28  C   UNL     1      -5.993   2.987 -21.893  0.00  0.00    +0.196 C 
ATOM     29  O   UNL     1      -5.655   3.741 -22.842  0.00  0.00    -0.357 OA
ENDBRANCH  27  29
ENDBRANCH  26  27
ENDBRANCH   1  26
TORSDOF 5
ENDMDL
MODEL 5
REMARK VINA RESULT:    -8.749      2.732      4.367
REMARK INTER + INTRA:         -10.331
REMARK INTER:                 -11.241
REMARK INTRA:                   0.910
REMARK UNBOUND:                 0.720
REMARK  Name = COCO[C@@H]1C=C2[C@H]3Cc4ccc(OC)c5c4[C@@]2(CCN3C)[C@](C)(O5)[C@@H]1O  ZINC000253505464
REMARK  9 active torsions:
REMARK  status: ('A' for Active; 'I' for Inactive)
REMARK    1  A    between atoms: C_1  and  O_2
REMARK    2  A    between atoms: O_2  and  C_3
REMARK    3  A    between atoms: C_3  and  O_4
REMARK    4  A    between atoms: O_4  and  C_5
REMARK    5  A    between atoms: C_13  and  O_14
REMARK    6  A    between atoms: O_14  and  C_15
REMARK    7  A    between atoms: N_21  and  C_22
REMARK    8  A    between atoms: C_23  and  C_24
REMARK    9  A    between atoms: C_26  and  O_27
REMARK                            x       y       z     vdW  Elec       q    Type
REMARK                         _______ _______ _______ _____ _____    ______ ____
ROOT
ATOM      1  C   UNL     1       4.119   3.277 -22.423  0.00  0.00    +0.176 C 
ATOM      2  C   UNL     1       3.500   2.275 -21.979  0.00  0.00    +0.013 C 
ATOM      3  C   UNL     1       2.237   2.203 -22.099  0.00  0.00    -0.009 C 
ATOM      4  C   UNL     1       1.618   1.187 -21.649  0.00  0.00    +0.096 C 
ATOM      5  C   UNL     1       0.368   1.114 -21.766  0.00  0.00    +0.094 C 
ATOM      6  C   UNL     1      -0.276   2.059 -22.337  0.00  0.00    -0.034 A 
ATOM      7  C   UNL     1      -1.530   1.987 -22.455  0.00  0.00    +0.008 A 
ATOM      8  C   UNL     1      -2.160   2.918 -23.017  0.00  0.00    +0.050 A 
ATOM      9  C   UNL     1      -1.544   3.934 -23.468  0.00  0.00    +0.162 A 
ATOM     10  C   UNL     1      -0.278   4.005 -23.348  0.00  0.00    +0.167 A 
ATOM     11  O   UNL     1       0.967   4.813 -23.612  0.00  0.00    -0.478 OA
ATOM     12  C   UNL     1       2.236   4.150 -23.110  0.00  0.00    +0.150 C 
ATOM     13  C   UNL     1       2.584   5.241 -23.633  0.00  0.00    +0.060 C 
ATOM     14  C   UNL     1       0.356   3.063 -22.780  0.00  0.00    +0.016 A 
ATOM     15  N   UNL     1       3.037   1.171 -21.464  0.00  0.00    +0.239 N 
ATOM     16  H   UNL     1       3.518   0.399 -21.003  0.00  0.00    +0.204 HD
ATOM     17  C   UNL     1       3.615   0.212 -20.894  0.00  0.00    +0.191 C 
ATOM     18  C   UNL     1       3.760   2.288 -21.954  0.00  0.00    +0.133 C 
ATOM     19  C   UNL     1       3.021   3.322 -22.583  0.00  0.00    +0.071 C 
ATOM     20  C   UNL     1       1.604   3.133 -22.661  0.00  0.00    +0.072 C 
ATOM     21  C   UNL     1       3.485   4.220 -22.991  0.00  0.00    +0.192 C 
ENDROOT
BRANCH   9  22
ATOM     22  O   UNL     1      -2.179   4.862 -24.029  0.00  0.00    -0.491 OA
ATOM     23  C   UNL     1      -3.156   4.598 -24.777  0.00  0.00    +0.277 C 
ENDBRANCH   9  22
BRANCH  21  24
ATOM     24  O   UNL     1       4.107   5.221 -23.433  0.00  0.00    -0.385 OA
ATOM     25  H   UNL     1       3.719   5.494 -24.279  0.00  0.00    +0.210 HD
ENDBRANCH  21  24
BRANCH   1  26
ATOM     26  O   UNL     1       5.370   3.344 -22.302  0.00  0.00    -0.344 OA
BRANCH  26  27
ATOM     27  C   UNL     1       5.921   2.987 -21.228  0.00  0.00    +0.323 C 
BRANCH  27  29
ATOM     28  C   UNL     1       7.231   4.712 -20.975  0.00  0.00    +0.196 C 
ATOM     29  O   UNL     1       6.464   3.844 -20.483  0.00  0.00    -0.357 OA
ENDBRANCH  27  29
ENDBRANCH  26  27
ENDBRANCH   1  26
TORSDOF 5
ENDMDL
MODEL 6
REMARK VINA RESULT:    -8.031      2.535      6.686
REMARK INTER + INTRA:          -9.424
REMARK INTER:                 -10.571
REMARK INTRA:                   1.148
REMARK UNBOUND:                 0.720
REMARK  Name = COCO[C@@H]1C=C2[C@H]3Cc4ccc(OC)c5c4[C@@]2(CCN3C)[C@](C)(O5)[C@@H]1O  ZINC000253505464
REMARK  9 active torsions:
REMARK  status: ('A' for Active; 'I' for Inactive)
REMARK    1  A    between atoms: C_1  and  O_2
REMARK    2  A    between atoms: O_2  and  C_3
REMARK    3  A    between atoms: C_3  and  O_4
REMARK    4  A    between atoms: O_4  and  C_5
REMARK    5  A    between atoms: C_13  and  O_14
REMARK    6  A    between atoms: O_14  and  C_15
REMARK    7  A    between atoms: N_21  and  C_22
REMARK    8  A    between atoms: C_23  and  C_24
REMARK    9  A    between atoms: C_26  and  O_27
REMARK                            x       y       z     vdW  Elec       q    Type
REMARK                         _______ _______ _______ _____ _____    ______ ____
ROOT
ATOM      1  C   UNL     1      -0.688   3.819 -22.873  0.00  0.00    +0.176 C 
ATOM      2  C   UNL     1      -0.336   2.692 -22.436  0.00  0.00    +0.013 C 
ATOM      3  C   UNL     1       0.896   2.386 -22.384  0.00  0.00    -0.009 C 
ATOM      4  C   UNL     1       1.245   1.246 -21.941  0.00  0.00    +0.096 C 
ATOM      5  C   UNL     1       2.463   0.941 -21.889  0.00  0.00    +0.094 C 
ATOM      6  C   UNL     1       3.348   1.777 -22.281  0.00  0.00    -0.034 A 
ATOM      7  C   UNL     1       4.571   1.473 -22.228  0.00  0.00    +0.008 A 
ATOM      8  C   UNL     1       5.438   2.297 -22.614  0.00  0.00    +0.050 A 
ATOM      9  C   UNL     1       5.093   3.437 -23.058  0.00  0.00    +0.162 A 
ATOM     10  C   UNL     1       3.857   3.742 -23.109  0.00  0.00    +0.167 A 
ATOM     11  O   UNL     1       2.834   4.788 -23.474  0.00  0.00    -0.478 OA
ATOM     12  C   UNL     1       1.405   4.353 -23.214  0.00  0.00    +0.150 C 
ATOM     13  C   UNL     1       1.344   5.519 -23.684  0.00  0.00    +0.060 C 
ATOM     14  C   UNL     1       2.984   2.908 -22.719  0.00  0.00    +0.016 A 
ATOM     15  N   UNL     1      -0.166   1.492 -21.958  0.00  0.00    +0.239 N 
ATOM     16  H   UNL     1      -0.843   0.801 -21.637  0.00  0.00    +0.204 HD
ATOM     17  C   UNL     1      -0.988   0.630 -21.559  0.00  0.00    +0.191 C 
ATOM     18  C   UNL     1      -0.590   2.753 -22.446  0.00  0.00    +0.133 C 
ATOM     19  C   UNL     1       0.412   3.662 -22.874  0.00  0.00    +0.071 C 
ATOM     20  C   UNL     1       1.766   3.209 -22.770  0.00  0.00    +0.072 C 
ATOM     21  C   UNL     1       0.185   4.654 -23.264  0.00  0.00    +0.192 C 
ENDROOT
BRANCH   9  22
ATOM     22  O   UNL     1       5.964   4.257 -23.442  0.00  0.00    -0.491 OA
ATOM     23  C   UNL     1       6.519   5.024 -22.614  0.00  0.00    +0.277 C 
ENDBRANCH   9  22
BRANCH  21  24
ATOM     24  O   UNL     1      -0.170   5.780 -23.701  0.00  0.00    -0.385 OA
ATOM     25  H   UNL     1       0.101   5.866 -24.628  0.00  0.00    +0.210 HD
ENDBRANCH  21  24
BRANCH   1  26
ATOM     26  O   UNL     1      -1.909   4.117 -22.923  0.00  0.00    -0.344 OA
BRANCH  26  27
ATOM     27  C   UNL     1      -2.670   3.829 -21.962  0.00  0.00    +0.323 C 
BRANCH  27  29
ATOM     28  C   UNL     1      -4.820   3.480 -21.865  0.00  0.00    +0.196 C 
ATOM     29  O   UNL     1      -3.663   3.077 -22.149  0.00  0.00    -0.357 OA
ENDBRANCH  27  29
ENDBRANCH  26  27
ENDBRANCH   1  26
TORSDOF 5
ENDMDL
MODEL 7
REMARK VINA RESULT:    -7.993      3.611      7.362
REMARK INTER + INTRA:          -9.376
REMARK INTER:                  -9.982
REMARK INTRA:                   0.607
REMARK UNBOUND:                 0.720
REMARK  Name = COCO[C@@H]1C=C2[C@H]3Cc4ccc(OC)c5c4[C@@]2(CCN3C)[C@](C)(O5)[C@@H]1O  ZINC000253505464
REMARK  9 active torsions:
REMARK  status: ('A' for Active; 'I' for Inactive)
REMARK    1  A    between atoms: C_1  and  O_2
REMARK    2  A    between atoms: O_2  and  C_3
REMARK    3  A    between atoms: C_3  and  O_4
REMARK    4  A    between atoms: O_4  and  C_5
REMARK    5  A    between atoms: C_13  and  O_14
REMARK    6  A    between atoms: O_14  and  C_15
REMARK    7  A    between atoms: N_21  and  C_22
REMARK    8  A    between atoms: C_23  and  C_24
REMARK    9  A    between atoms: C_26  and  O_27
REMARK                            x       y       z     vdW  Elec       q    Type
REMARK                         _______ _______ _______ _____ _____    ______ ____
ROOT
ATOM      1  C   UNL     1       1.227   3.261 -23.306  0.00  0.00    +0.176 C 
ATOM      2  C   UNL     1       2.027   2.313 -23.093  0.00  0.00    +0.013 C 
ATOM      3  C   UNL     1       3.255   2.552 -22.873  0.00  0.00    -0.009 C 
ATOM      4  C   UNL     1       4.058   1.590 -22.658  0.00  0.00    +0.096 C 
ATOM      5  C   UNL     1       5.273   1.825 -22.440  0.00  0.00    +0.094 C 
ATOM      6  C   UNL     1       5.699   3.031 -22.434  0.00  0.00    -0.034 A 
ATOM      7  C   UNL     1       6.918   3.269 -22.215  0.00  0.00    +0.008 A 
ATOM      8  C   UNL     1       7.333   4.455 -22.210  0.00  0.00    +0.050 A 
ATOM      9  C   UNL     1       6.534   5.419 -22.424  0.00  0.00    +0.162 A 
ATOM     10  C   UNL     1       5.303   5.177 -22.645  0.00  0.00    +0.167 A 
ATOM     11  O   UNL     1       3.941   5.753 -22.943  0.00  0.00    -0.478 OA
ATOM     12  C   UNL     1       2.858   4.701 -23.084  0.00  0.00    +0.150 C 
ATOM     13  C   UNL     1       2.300   5.815 -23.261  0.00  0.00    +0.060 C 
ATOM     14  C   UNL     1       4.886   3.978 -22.649  0.00  0.00    +0.016 A 
ATOM     15  N   UNL     1       2.697   1.212 -22.895  0.00  0.00    +0.239 N 
ATOM     16  H   UNL     1       2.393   0.239 -22.892  0.00  0.00    +0.204 HD
ATOM     17  C   UNL     1       2.338   0.009 -22.888  0.00  0.00    +0.191 C 
ATOM     18  C   UNL     1       1.774   2.261 -23.138  0.00  0.00    +0.133 C 
ATOM     19  C   UNL     1       2.273   3.589 -23.126  0.00  0.00    +0.071 C 
ATOM     20  C   UNL     1       3.673   3.739 -22.867  0.00  0.00    +0.072 C 
ATOM     21  C   UNL     1       1.643   4.461 -23.302  0.00  0.00    +0.192 C 
ENDROOT
BRANCH   9  22
ATOM     22  O   UNL     1       6.954   6.604 -22.418  0.00  0.00    -0.491 OA
ATOM     23  C   UNL     1       6.796   7.325 -21.399  0.00  0.00    +0.277 C 
ENDBRANCH   9  22
BRANCH  21  24
ATOM     24  O   UNL     1       0.841   5.407 -23.516  0.00  0.00    -0.385 OA
ATOM     25  H   UNL     1       1.331   6.178 -23.841  0.00  0.00    +0.210 HD
ENDBRANCH  21  24
BRANCH   1  26
ATOM     26  O   UNL     1       0.012   3.018 -23.524  0.00  0.00    -0.344 OA
BRANCH  26  27
ATOM     27  C   UNL     1      -0.762   2.758 -22.566  0.00  0.00    +0.323 C 
BRANCH  27  29
ATOM     28  C   UNL     1      -2.451   3.384 -21.337  0.00  0.00    +0.196 C 
ATOM     29  O   UNL     1      -1.459   3.674 -22.053  0.00  0.00    -0.357 OA
ENDBRANCH  27  29
ENDBRANCH  26  27
ENDBRANCH   1  26
TORSDOF 5
ENDMDL
