MODEL 1
REMARK VINA RESULT:    -8.713      0.000      0.000
REMARK INTER + INTRA:         -11.292
REMARK INTER:                 -10.984
REMARK INTRA:                  -0.308
REMARK UNBOUND:                -0.287
REMARK  Name = CN1[C@H]2CC[C@H]1CC(OC(=O)[C@@H](O)c1ccccc1)C2                       ZINC000100025275
REMARK  6 active torsions:
REMARK  status: ('A' for Active; 'I' for Inactive)
REMARK    1  A    between atoms: C_1  and  N_2
REMARK    2  A    between atoms: C_8  and  O_9
REMARK    3  A    between atoms: O_9  and  C_10
REMARK    4  A    between atoms: C_10  and  C_12
REMARK    5  A    between atoms: C_12  and  O_13
REMARK    6  A    between atoms: C_12  and  C_14
REMARK                            x       y       z     vdW  Elec       q    Type
REMARK                         _______ _______ _______ _____ _____    ______ ____
ROOT
ATOM      1  O   UNL     1      -0.853   3.586 -22.676  0.00  0.00    -0.459 OA
ENDROOT
BRANCH   1   9
ATOM      2  C   UNL     1      -3.102   3.548 -22.792  0.00  0.00    +0.191 C 
ATOM      3  N   UNL     1      -3.858   3.536 -22.832  0.00  0.00    +0.238 N 
ATOM      4  H   UNL     1      -4.877   3.519 -22.886  0.00  0.00    +0.204 HD
ATOM      5  C   UNL     1      -4.157   3.786 -23.739  0.00  0.00    +0.068 C 
ATOM      6  C   UNL     1      -5.500   3.699 -23.580  0.00  0.00    +0.060 C 
ATOM      7  C   UNL     1      -5.565   3.319 -22.263  0.00  0.00    +0.060 C 
ATOM      8  C   UNL     1      -3.004   3.929 -24.108  0.00  0.00    +0.099 C 
ATOM      9  C   UNL     1      -2.130   3.564 -22.739  0.00  0.00    +0.187 C 
ATOM     10  C   UNL     1      -3.133   3.169 -21.472  0.00  0.00    +0.099 C 
ATOM     11  C   UNL     1      -4.243   3.274 -21.961  0.00  0.00    +0.068 C 
ENDBRANCH   1   9
BRANCH   1  12
ATOM     12  C   UNL     1      -0.206   2.629 -23.264  0.00  0.00    +0.341 C 
ATOM     13  O   UNL     1      -0.394   1.345 -22.879  0.00  0.00    -0.248 OA
BRANCH  12  14
ATOM     14  C   UNL     1       0.621   2.925 -24.223  0.00  0.00    +0.253 C 
BRANCH  14  15
ATOM     15  C   UNL     1       1.904   3.126 -23.960  0.00  0.00    -0.008 A 
ATOM     16  C   UNL     1       2.341   4.303 -23.458  0.00  0.00    +0.007 A 
ATOM     17  C   UNL     1       3.655   4.482 -23.198  0.00  0.00    +0.000 A 
ATOM     18  C   UNL     1       4.535   3.485 -23.439  0.00  0.00    +0.000 A 
ATOM     19  C   UNL     1       4.097   2.307 -23.942  0.00  0.00    +0.000 A 
ATOM     20  C   UNL     1       2.785   2.128 -24.202  0.00  0.00    +0.007 A 
ENDBRANCH  14  15
BRANCH  14  21
ATOM     21  O   UNL     1       0.161   3.028 -25.492  0.00  0.00    -0.376 OA
ATOM     22  H   UNL     1      -0.790   3.225 -25.476  0.00  0.00    +0.211 HD
ENDBRANCH  14  21
ENDBRANCH  12  14
ENDBRANCH   1  12
TORSDOF 5
ENDMDL
MODEL 2
REMARK VINA RESULT:    -8.551      1.271      1.807
REMARK INTER + INTRA:         -11.088
REMARK INTER:                 -10.716
REMARK INTRA:                  -0.372
REMARK UNBOUND:                -0.287
REMARK  Name = CN1[C@H]2CC[C@H]1CC(OC(=O)[C@@H](O)c1ccccc1)C2                       ZINC000100025275
REMARK  6 active torsions:
REMARK  status: ('A' for Active; 'I' for Inactive)
REMARK    1  A    between atoms: C_1  and  N_2
REMARK    2  A    between atoms: C_8  and  O_9
REMARK    3  A    between atoms: O_9  and  C_10
REMARK    4  A    between atoms: C_10  and  C_12
REMARK    5  A    between atoms: C_12  and  O_13
REMARK    6  A    between atoms: C_12  and  C_14
REMARK                            x       y       z     vdW  Elec       q    Type
REMARK                         _______ _______ _______ _____ _____    ______ ____
ROOT
ATOM      1  O   UNL     1      -1.385   3.104 -24.820  0.00  0.00    -0.459 OA
ENDROOT
BRANCH   1   9
ATOM      2  C   UNL     1      -3.046   3.070 -23.299  0.00  0.00    +0.191 C 
ATOM      3  N   UNL     1      -3.606   3.060 -22.789  0.00  0.00    +0.238 N 
ATOM      4  H   UNL     1      -4.359   3.045 -22.101  0.00  0.00    +0.204 HD
ATOM      5  C   UNL     1      -4.410   3.500 -23.153  0.00  0.00    +0.068 C 
ATOM      6  C   UNL     1      -5.253   3.366 -22.100  0.00  0.00    +0.060 C 
ATOM      7  C   UNL     1      -4.436   2.706 -21.218  0.00  0.00    +0.060 C 
ATOM      8  C   UNL     1      -3.839   3.731 -24.205  0.00  0.00    +0.099 C 
ATOM      9  C   UNL     1      -2.326   3.084 -23.955  0.00  0.00    +0.187 C 
ATOM     10  C   UNL     1      -2.203   2.410 -22.439  0.00  0.00    +0.099 C 
ATOM     11  C   UNL     1      -3.307   2.609 -21.962  0.00  0.00    +0.068 C 
ENDBRANCH   1   9
BRANCH   1  12
ATOM     12  C   UNL     1      -0.278   3.693 -24.489  0.00  0.00    +0.341 C 
ATOM     13  O   UNL     1      -0.308   4.900 -23.878  0.00  0.00    -0.248 OA
BRANCH  12  14
ATOM     14  C   UNL     1       0.851   3.105 -24.755  0.00  0.00    +0.253 C 
BRANCH  14  15
ATOM     15  C   UNL     1       1.684   2.788 -23.774  0.00  0.00    -0.008 A 
ATOM     16  C   UNL     1       1.350   1.870 -22.839  0.00  0.00    +0.007 A 
ATOM     17  C   UNL     1       2.218   1.565 -21.849  0.00  0.00    +0.000 A 
ATOM     18  C   UNL     1       3.423   2.177 -21.792  0.00  0.00    +0.000 A 
ATOM     19  C   UNL     1       3.757   3.095 -22.729  0.00  0.00    +0.000 A 
ATOM     20  C   UNL     1       2.890   3.400 -23.717  0.00  0.00    +0.007 A 
ENDBRANCH  14  15
BRANCH  14  21
ATOM     21  O   UNL     1       1.168   2.819 -26.039  0.00  0.00    -0.376 OA
ATOM     22  H   UNL     1       1.093   3.623 -26.577  0.00  0.00    +0.211 HD
ENDBRANCH  14  21
ENDBRANCH  12  14
ENDBRANCH   1  12
TORSDOF 5
ENDMDL
MODEL 3
REMARK VINA RESULT:    -8.489      1.990      6.272
REMARK INTER + INTRA:         -11.009
REMARK INTER:                 -10.612
REMARK INTRA:                  -0.397
REMARK UNBOUND:                -0.287
REMARK  Name = CN1[C@H]2CC[C@H]1CC(OC(=O)[C@@H](O)c1ccccc1)C2                       ZINC000100025275
REMARK  6 active torsions:
REMARK  status: ('A' for Active; 'I' for Inactive)
REMARK    1  A    between atoms: C_1  and  N_2
REMARK    2  A    between atoms: C_8  and  O_9
REMARK    3  A    between atoms: O_9  and  C_10
REMARK    4  A    between atoms: C_10  and  C_12
REMARK    5  A    between atoms: C_12  and  O_13
REMARK    6  A    between atoms: C_12  and  C_14
REMARK                            x       y       z     vdW  Elec       q    Type
REMARK                         _______ _______ _______ _____ _____    ______ ____
ROOT
ATOM      1  O   UNL     1      -0.887   1.922 -23.630  0.00  0.00    -0.459 OA
ENDROOT
BRANCH   1   9
ATOM      2  C   UNL     1       1.144   1.943 -22.655  0.00  0.00    +0.191 C 
ATOM      3  N   UNL     1       1.827   1.950 -22.329  0.00  0.00    +0.238 N 
ATOM      4  H   UNL     1       2.747   1.960 -21.888  0.00  0.00    +0.204 HD
ATOM      5  C   UNL     1       2.507   2.280 -22.964  0.00  0.00    +0.068 C 
ATOM      6  C   UNL     1       3.614   2.208 -22.186  0.00  0.00    +0.060 C 
ATOM      7  C   UNL     1       3.065   1.725 -21.025  0.00  0.00    +0.060 C 
ATOM      8  C   UNL     1       1.663   2.426 -23.831  0.00  0.00    +0.099 C 
ATOM      9  C   UNL     1       0.265   1.933 -23.075  0.00  0.00    +0.187 C 
ATOM     10  C   UNL     1       0.563   1.460 -21.508  0.00  0.00    +0.099 C 
ATOM     11  C   UNL     1       1.765   1.628 -21.397  0.00  0.00    +0.068 C 
ENDBRANCH   1   9
BRANCH   1  12
ATOM     12  C   UNL     1      -1.415   3.065 -23.940  0.00  0.00    +0.341 C 
ATOM     13  O   UNL     1      -1.386   3.502 -25.221  0.00  0.00    -0.248 OA
BRANCH  12  14
ATOM     14  C   UNL     1      -1.968   3.777 -23.003  0.00  0.00    +0.253 C 
BRANCH  14  15
ATOM     15  C   UNL     1      -3.155   3.437 -22.520  0.00  0.00    -0.008 A 
ATOM     16  C   UNL     1      -4.297   3.809 -23.140  0.00  0.00    +0.007 A 
ATOM     17  C   UNL     1      -5.494   3.450 -22.628  0.00  0.00    +0.000 A 
ATOM     18  C   UNL     1      -5.553   2.717 -21.493  0.00  0.00    +0.000 A 
ATOM     19  C   UNL     1      -4.409   2.344 -20.872  0.00  0.00    +0.000 A 
ATOM     20  C   UNL     1      -3.213   2.703 -21.384  0.00  0.00    +0.007 A 
ENDBRANCH  14  15
BRANCH  14  21
ATOM     21  O   UNL     1      -1.324   4.866 -22.525  0.00  0.00    -0.376 OA
ATOM     22  H   UNL     1      -1.346   5.572 -23.190  0.00  0.00    +0.211 HD
ENDBRANCH  14  21
ENDBRANCH  12  14
ENDBRANCH   1  12
TORSDOF 5
ENDMDL
MODEL 4
REMARK VINA RESULT:    -8.241      1.808      6.668
REMARK INTER + INTRA:         -10.695
REMARK INTER:                 -10.484
REMARK INTRA:                  -0.212
REMARK UNBOUND:                -0.287
REMARK  Name = CN1[C@H]2CC[C@H]1CC(OC(=O)[C@@H](O)c1ccccc1)C2                       ZINC000100025275
REMARK  6 active torsions:
REMARK  status: ('A' for Active; 'I' for Inactive)
REMARK    1  A    between atoms: C_1  and  N_2
REMARK    2  A    between atoms: C_8  and  O_9
REMARK    3  A    between atoms: O_9  and  C_10
REMARK    4  A    between atoms: C_10  and  C_12
REMARK    5  A    between atoms: C_12  and  O_13
REMARK    6  A    between atoms: C_12  and  C_14
REMARK                            x       y       z     vdW  Elec       q    Type
REMARK                         _______ _______ _______ _____ _____    ______ ____
ROOT
ATOM      1  O   UNL     1       0.279   3.795 -24.626  0.00  0.00    -0.459 OA
ENDROOT
BRANCH   1   9
ATOM      2  C   UNL     1       2.424   3.639 -23.955  0.00  0.00    +0.191 C 
ATOM      3  N   UNL     1       3.145   3.588 -23.729  0.00  0.00    +0.238 N 
ATOM      4  H   UNL     1       4.116   3.518 -23.424  0.00  0.00    +0.204 HD
ATOM      5  C   UNL     1       3.416   4.412 -23.259  0.00  0.00    +0.068 C 
ATOM      6  C   UNL     1       4.700   4.102 -22.955  0.00  0.00    +0.060 C 
ATOM      7  C   UNL     1       4.782   2.845 -23.500  0.00  0.00    +0.060 C 
ATOM      8  C   UNL     1       2.310   4.898 -23.420  0.00  0.00    +0.099 C 
ATOM      9  C   UNL     1       1.497   3.704 -24.246  0.00  0.00    +0.187 C 
ATOM     10  C   UNL     1       2.474   2.383 -24.510  0.00  0.00    +0.099 C 
ATOM     11  C   UNL     1       3.526   2.716 -23.994  0.00  0.00    +0.068 C 
ENDBRANCH   1   9
BRANCH   1  12
ATOM     12  C   UNL     1      -0.634   3.330 -23.833  0.00  0.00    +0.341 C 
ATOM     13  O   UNL     1      -0.728   1.998 -23.613  0.00  0.00    -0.248 OA
BRANCH  12  14
ATOM     14  C   UNL     1      -1.450   4.162 -23.257  0.00  0.00    +0.253 C 
BRANCH  14  15
ATOM     15  C   UNL     1      -2.759   4.041 -23.431  0.00  0.00    -0.008 A 
ATOM     16  C   UNL     1      -3.346   4.381 -24.601  0.00  0.00    +0.007 A 
ATOM     17  C   UNL     1      -4.681   4.248 -24.752  0.00  0.00    +0.000 A 
ATOM     18  C   UNL     1      -5.434   3.773 -23.734  0.00  0.00    +0.000 A 
ATOM     19  C   UNL     1      -4.847   3.433 -22.564  0.00  0.00    +0.000 A 
ATOM     20  C   UNL     1      -3.512   3.566 -22.412  0.00  0.00    +0.007 A 
ENDBRANCH  14  15
BRANCH  14  21
ATOM     21  O   UNL     1      -0.955   5.153 -22.481  0.00  0.00    -0.376 OA
ATOM     22  H   UNL     1      -0.111   4.869 -22.093  0.00  0.00    +0.211 HD
ENDBRANCH  14  21
ENDBRANCH  12  14
ENDBRANCH   1  12
TORSDOF 5
ENDMDL
MODEL 5
REMARK VINA RESULT:    -8.183      1.644      2.409
REMARK INTER + INTRA:         -10.622
REMARK INTER:                 -10.397
REMARK INTRA:                  -0.225
REMARK UNBOUND:                -0.287
REMARK  Name = CN1[C@H]2CC[C@H]1CC(OC(=O)[C@@H](O)c1ccccc1)C2                       ZINC000100025275
REMARK  6 active torsions:
REMARK  status: ('A' for Active; 'I' for Inactive)
REMARK    1  A    between atoms: C_1  and  N_2
REMARK    2  A    between atoms: C_8  and  O_9
REMARK    3  A    between atoms: O_9  and  C_10
REMARK    4  A    between atoms: C_10  and  C_12
REMARK    5  A    between atoms: C_12  and  O_13
REMARK    6  A    between atoms: C_12  and  C_14
REMARK                            x       y       z     vdW  Elec       q    Type
REMARK                         _______ _______ _______ _____ _____    ______ ____
ROOT
ATOM      1  O   UNL     1      -0.869   2.011 -23.528  0.00  0.00    -0.459 OA
ENDROOT
BRANCH   1   9
ATOM      2  C   UNL     1      -2.943   2.888 -23.440  0.00  0.00    +0.191 C 
ATOM      3  N   UNL     1      -3.640   3.182 -23.409  0.00  0.00    +0.238 N 
ATOM      4  H   UNL     1      -4.578   3.578 -23.367  0.00  0.00    +0.204 HD
ATOM      5  C   UNL     1      -4.017   3.074 -22.503  0.00  0.00    +0.068 C 
ATOM      6  C   UNL     1      -5.229   3.655 -22.680  0.00  0.00    +0.060 C 
ATOM      7  C   UNL     1      -5.137   4.012 -24.001  0.00  0.00    +0.060 C 
ATOM      8  C   UNL     1      -3.003   2.517 -22.119  0.00  0.00    +0.099 C 
ATOM      9  C   UNL     1      -2.046   2.510 -23.480  0.00  0.00    +0.187 C 
ATOM     10  C   UNL     1      -2.819   3.233 -24.764  0.00  0.00    +0.099 C 
ATOM     11  C   UNL     1      -3.893   3.556 -24.287  0.00  0.00    +0.068 C 
ENDBRANCH   1   9
BRANCH   1  12
ATOM     12  C   UNL     1       0.039   2.544 -22.772  0.00  0.00    +0.341 C 
ATOM     13  O   UNL     1       0.311   3.866 -22.865  0.00  0.00    -0.248 OA
BRANCH  12  14
ATOM     14  C   UNL     1       0.679   1.787 -21.929  0.00  0.00    +0.253 C 
BRANCH  14  15
ATOM     15  C   UNL     1       1.976   1.565 -22.084  0.00  0.00    -0.008 A 
ATOM     16  C   UNL     1       2.839   1.702 -21.052  0.00  0.00    +0.007 A 
ATOM     17  C   UNL     1       4.157   1.469 -21.237  0.00  0.00    +0.000 A 
ATOM     18  C   UNL     1       4.616   1.098 -22.453  0.00  0.00    +0.000 A 
ATOM     19  C   UNL     1       3.752   0.961 -23.485  0.00  0.00    +0.000 A 
ATOM     20  C   UNL     1       2.435   1.193 -23.301  0.00  0.00    +0.007 A 
ENDBRANCH  14  15
BRANCH  14  21
ATOM     21  O   UNL     1       0.010   1.229 -20.894  0.00  0.00    -0.376 OA
ATOM     22  H   UNL     1      -0.468   0.443 -21.203  0.00  0.00    +0.211 HD
ENDBRANCH  14  21
ENDBRANCH  12  14
ENDBRANCH   1  12
TORSDOF 5
ENDMDL
MODEL 6
REMARK VINA RESULT:    -8.102      1.876      6.163
REMARK INTER + INTRA:         -10.520
REMARK INTER:                 -10.288
REMARK INTRA:                  -0.233
REMARK UNBOUND:                -0.287
REMARK  Name = CN1[C@H]2CC[C@H]1CC(OC(=O)[C@@H](O)c1ccccc1)C2                       ZINC000100025275
REMARK  6 active torsions:
REMARK  status: ('A' for Active; 'I' for Inactive)
REMARK    1  A    between atoms: C_1  and  N_2
REMARK    2  A    between atoms: C_8  and  O_9
REMARK    3  A    between atoms: O_9  and  C_10
REMARK    4  A    between atoms: C_10  and  C_12
REMARK    5  A    between atoms: C_12  and  O_13
REMARK    6  A    between atoms: C_12  and  C_14
REMARK                            x       y       z     vdW  Elec       q    Type
REMARK                         _______ _______ _______ _____ _____    ______ ____
ROOT
ATOM      1  O   UNL     1      -1.327   4.159 -25.072  0.00  0.00    -0.459 OA
ENDROOT
BRANCH   1   9
ATOM      2  C   UNL     1       0.575   3.297 -24.225  0.00  0.00    +0.191 C 
ATOM      3  N   UNL     1       1.214   3.008 -23.942  0.00  0.00    +0.238 N 
ATOM      4  H   UNL     1       2.076   2.618 -23.560  0.00  0.00    +0.204 HD
ATOM      5  C   UNL     1       1.830   2.759 -24.672  0.00  0.00    +0.068 C 
ATOM      6  C   UNL     1       2.873   2.279 -23.950  0.00  0.00    +0.060 C 
ATOM      7  C   UNL     1       2.389   2.454 -22.678  0.00  0.00    +0.060 C 
ATOM      8  C   UNL     1       1.030   3.135 -25.510  0.00  0.00    +0.099 C 
ATOM      9  C   UNL     1      -0.248   3.670 -24.589  0.00  0.00    +0.187 C 
ATOM     10  C   UNL     1       0.062   3.486 -22.965  0.00  0.00    +0.099 C 
ATOM     11  C   UNL     1       1.177   2.995 -22.955  0.00  0.00    +0.068 C 
ENDBRANCH   1   9
BRANCH   1  12
ATOM     12  C   UNL     1      -2.424   3.494 -24.884  0.00  0.00    +0.341 C 
ATOM     13  O   UNL     1      -2.485   2.181 -25.204  0.00  0.00    -0.248 OA
BRANCH  12  14
ATOM     14  C   UNL     1      -3.455   4.110 -24.386  0.00  0.00    +0.253 C 
BRANCH  14  15
ATOM     15  C   UNL     1      -4.064   3.630 -23.311  0.00  0.00    -0.008 A 
ATOM     16  C   UNL     1      -5.412   3.635 -23.208  0.00  0.00    +0.007 A 
ATOM     17  C   UNL     1      -6.009   3.139 -22.102  0.00  0.00    +0.000 A 
ATOM     18  C   UNL     1      -5.259   2.637 -21.095  0.00  0.00    +0.000 A 
ATOM     19  C   UNL     1      -3.909   2.633 -21.199  0.00  0.00    +0.000 A 
ATOM     20  C   UNL     1      -3.313   3.128 -22.304  0.00  0.00    +0.007 A 
ENDBRANCH  14  15
BRANCH  14  21
ATOM     21  O   UNL     1      -3.901   5.245 -24.973  0.00  0.00    -0.376 OA
ATOM     22  H   UNL     1      -3.462   6.011 -24.570  0.00  0.00    +0.211 HD
ENDBRANCH  14  21
ENDBRANCH  12  14
ENDBRANCH   1  12
TORSDOF 5
ENDMDL
MODEL 7
REMARK VINA RESULT:    -7.799      2.241      3.354
REMARK INTER + INTRA:         -10.138
REMARK INTER:                  -9.633
REMARK INTRA:                  -0.505
REMARK UNBOUND:                -0.287
REMARK  Name = CN1[C@H]2CC[C@H]1CC(OC(=O)[C@@H](O)c1ccccc1)C2                       ZINC000100025275
REMARK  6 active torsions:
REMARK  status: ('A' for Active; 'I' for Inactive)
REMARK    1  A    between atoms: C_1  and  N_2
REMARK    2  A    between atoms: C_8  and  O_9
REMARK    3  A    between atoms: O_9  and  C_10
REMARK    4  A    between atoms: C_10  and  C_12
REMARK    5  A    between atoms: C_12  and  O_13
REMARK    6  A    between atoms: C_12  and  C_14
REMARK                            x       y       z     vdW  Elec       q    Type
REMARK                         _______ _______ _______ _____ _____    ______ ____
ROOT
ATOM      1  O   UNL     1       1.525   0.902 -22.742  0.00  0.00    -0.459 OA
ENDROOT
BRANCH   1   9
ATOM      2  C   UNL     1      -0.175   2.329 -22.354  0.00  0.00    +0.191 C 
ATOM      3  N   UNL     1      -0.746   2.809 -22.225  0.00  0.00    +0.238 N 
ATOM      4  H   UNL     1      -1.515   3.456 -22.050  0.00  0.00    +0.204 HD
ATOM      5  C   UNL     1      -0.694   3.577 -22.842  0.00  0.00    +0.068 C 
ATOM      6  C   UNL     1      -1.780   4.281 -22.439  0.00  0.00    +0.060 C 
ATOM      7  C   UNL     1      -2.240   3.465 -21.437  0.00  0.00    +0.060 C 
ATOM      8  C   UNL     1       0.311   3.124 -23.363  0.00  0.00    +0.099 C 
ATOM      9  C   UNL     1       0.559   1.711 -22.520  0.00  0.00    +0.187 C 
ATOM     10  C   UNL     1      -0.610   1.491 -21.356  0.00  0.00    +0.099 C 
ATOM     11  C   UNL     1      -1.315   2.476 -21.489  0.00  0.00    +0.068 C 
ENDBRANCH   1   9
BRANCH   1  12
ATOM     12  C   UNL     1       2.694   1.224 -22.284  0.00  0.00    +0.341 C 
ATOM     13  O   UNL     1       2.904   1.299 -20.950  0.00  0.00    -0.248 OA
BRANCH  12  14
ATOM     14  C   UNL     1       3.652   1.471 -23.128  0.00  0.00    +0.253 C 
BRANCH  14  15
ATOM     15  C   UNL     1       4.437   2.526 -22.955  0.00  0.00    -0.008 A 
ATOM     16  C   UNL     1       5.707   2.390 -22.512  0.00  0.00    +0.007 A 
ATOM     17  C   UNL     1       6.486   3.481 -22.345  0.00  0.00    +0.000 A 
ATOM     18  C   UNL     1       5.998   4.711 -22.619  0.00  0.00    +0.000 A 
ATOM     19  C   UNL     1       4.726   4.846 -23.062  0.00  0.00    +0.000 A 
ATOM     20  C   UNL     1       3.948   3.757 -23.230  0.00  0.00    +0.007 A 
ENDBRANCH  14  15
BRANCH  14  21
ATOM     21  O   UNL     1       3.843   0.645 -24.182  0.00  0.00    -0.376 OA
ATOM     22  H   UNL     1       4.471  -0.054 -23.936  0.00  0.00    +0.211 HD
ENDBRANCH  14  21
ENDBRANCH  12  14
ENDBRANCH   1  12
TORSDOF 5
ENDMDL
MODEL 8
REMARK VINA RESULT:    -7.553      1.824      2.670
REMARK INTER + INTRA:          -9.827
REMARK INTER:                  -9.292
REMARK INTRA:                  -0.535
REMARK UNBOUND:                -0.287
REMARK  Name = CN1[C@H]2CC[C@H]1CC(OC(=O)[C@@H](O)c1ccccc1)C2                       ZINC000100025275
REMARK  6 active torsions:
REMARK  status: ('A' for Active; 'I' for Inactive)
REMARK    1  A    between atoms: C_1  and  N_2
REMARK    2  A    between atoms: C_8  and  O_9
REMARK    3  A    between atoms: O_9  and  C_10
REMARK    4  A    between atoms: C_10  and  C_12
REMARK    5  A    between atoms: C_12  and  O_13
REMARK    6  A    between atoms: C_12  and  C_14
REMARK                            x       y       z     vdW  Elec       q    Type
REMARK                         _______ _______ _______ _____ _____    ______ ____
ROOT
ATOM      1  O   UNL     1       0.712   4.367 -25.026  0.00  0.00    -0.459 OA
ENDROOT
BRANCH   1   9
ATOM      2  C   UNL     1      -1.190   3.928 -23.901  0.00  0.00    +0.191 C 
ATOM      3  N   UNL     1      -1.830   3.780 -23.524  0.00  0.00    +0.238 N 
ATOM      4  H   UNL     1      -2.691   3.581 -23.016  0.00  0.00    +0.204 HD
ATOM      5  C   UNL     1      -2.458   3.281 -24.098  0.00  0.00    +0.068 C 
ATOM      6  C   UNL     1      -3.498   3.132 -23.241  0.00  0.00    +0.060 C 
ATOM      7  C   UNL     1      -2.995   3.772 -22.136  0.00  0.00    +0.060 C 
ATOM      8  C   UNL     1      -1.664   3.294 -25.023  0.00  0.00    +0.099 C 
ATOM      9  C   UNL     1      -0.367   4.119 -24.385  0.00  0.00    +0.187 C 
ATOM     10  C   UNL     1      -0.658   4.576 -22.812  0.00  0.00    +0.099 C 
ATOM     11  C   UNL     1      -1.780   4.146 -22.608  0.00  0.00    +0.068 C 
ENDBRANCH   1   9
BRANCH   1  12
ATOM     12  C   UNL     1       1.823   3.923 -24.526  0.00  0.00    +0.341 C 
ATOM     13  O   UNL     1       2.657   4.764 -23.872  0.00  0.00    -0.248 OA
BRANCH  12  14
ATOM     14  C   UNL     1       2.115   2.663 -24.665  0.00  0.00    +0.253 C 
BRANCH  14  15
ATOM     15  C   UNL     1       2.519   1.953 -23.622  0.00  0.00    -0.008 A 
ATOM     16  C   UNL     1       1.696   1.715 -22.575  0.00  0.00    +0.007 A 
ATOM     17  C   UNL     1       2.133   0.988 -21.523  0.00  0.00    +0.000 A 
ATOM     18  C   UNL     1       3.392   0.498 -21.514  0.00  0.00    +0.000 A 
ATOM     19  C   UNL     1       4.215   0.737 -22.562  0.00  0.00    +0.000 A 
ATOM     20  C   UNL     1       3.780   1.463 -23.613  0.00  0.00    +0.007 A 
ENDBRANCH  14  15
BRANCH  14  21
ATOM     21  O   UNL     1       2.004   2.084 -25.883  0.00  0.00    -0.376 OA
ATOM     22  H   UNL     1       2.430   1.212 -25.866  0.00  0.00    +0.211 HD
ENDBRANCH  14  21
ENDBRANCH  12  14
ENDBRANCH   1  12
TORSDOF 5
ENDMDL
MODEL 9
REMARK VINA RESULT:    -7.405      3.478      7.390
REMARK INTER + INTRA:          -9.640
REMARK INTER:                  -9.353
REMARK INTRA:                  -0.287
REMARK UNBOUND:                -0.287
REMARK  Name = CN1[C@H]2CC[C@H]1CC(OC(=O)[C@@H](O)c1ccccc1)C2                       ZINC000100025275
REMARK  6 active torsions:
REMARK  status: ('A' for Active; 'I' for Inactive)
REMARK    1  A    between atoms: C_1  and  N_2
REMARK    2  A    between atoms: C_8  and  O_9
REMARK    3  A    between atoms: O_9  and  C_10
REMARK    4  A    between atoms: C_10  and  C_12
REMARK    5  A    between atoms: C_12  and  O_13
REMARK    6  A    between atoms: C_12  and  C_14
REMARK                            x       y       z     vdW  Elec       q    Type
REMARK                         _______ _______ _______ _____ _____    ______ ____
ROOT
ATOM      1  O   UNL     1       4.203   0.584 -21.846  0.00  0.00    -0.459 OA
ENDROOT
BRANCH   1   9
ATOM      2  C   UNL     1       5.278   2.522 -22.252  0.00  0.00    +0.191 C 
ATOM      3  N   UNL     1       5.639   3.174 -22.387  0.00  0.00    +0.238 N 
ATOM      4  H   UNL     1       6.126   4.051 -22.569  0.00  0.00    +0.204 HD
ATOM      5  C   UNL     1       6.119   3.473 -21.578  0.00  0.00    +0.068 C 
ATOM      6  C   UNL     1       6.674   4.620 -22.041  0.00  0.00    +0.060 C 
ATOM      7  C   UNL     1       6.206   4.612 -23.331  0.00  0.00    +0.060 C 
ATOM      8  C   UNL     1       5.730   2.501 -20.955  0.00  0.00    +0.099 C 
ATOM      9  C   UNL     1       4.812   1.684 -22.079  0.00  0.00    +0.187 C 
ATOM     10  C   UNL     1       4.793   2.486 -23.537  0.00  0.00    +0.099 C 
ATOM     11  C   UNL     1       5.487   3.463 -23.319  0.00  0.00    +0.068 C 
ENDBRANCH   1   9
BRANCH   1  12
ATOM     12  C   UNL     1       2.926   0.548 -22.062  0.00  0.00    +0.341 C 
ATOM     13  O   UNL     1       2.432  -0.179 -23.091  0.00  0.00    -0.248 OA
BRANCH  12  14
ATOM     14  C   UNL     1       2.136   1.219 -21.277  0.00  0.00    +0.253 C 
BRANCH  14  15
ATOM     15  C   UNL     1       1.072   1.838 -21.771  0.00  0.00    -0.008 A 
ATOM     16  C   UNL     1       1.195   2.789 -22.724  0.00  0.00    +0.007 A 
ATOM     17  C   UNL     1       0.095   3.405 -23.211  0.00  0.00    +0.000 A 
ATOM     18  C   UNL     1      -1.130   3.071 -22.747  0.00  0.00    +0.000 A 
ATOM     19  C   UNL     1      -1.252   2.119 -21.793  0.00  0.00    +0.000 A 
ATOM     20  C   UNL     1      -0.154   1.503 -21.306  0.00  0.00    +0.007 A 
ENDBRANCH  14  15
BRANCH  14  21
ATOM     21  O   UNL     1       2.407   1.281 -19.953  0.00  0.00    -0.376 OA
ATOM     22  H   UNL     1       3.173   0.720 -19.753  0.00  0.00    +0.211 HD
ENDBRANCH  14  21
ENDBRANCH  12  14
ENDBRANCH   1  12
TORSDOF 5
ENDMDL
