MODEL 1
REMARK VINA RESULT:    -8.174      0.000      0.000
REMARK INTER + INTRA:         -14.004
REMARK INTER:                 -12.314
REMARK INTRA:                  -1.689
REMARK UNBOUND:                -1.529
REMARK  Name = ZINC000096316334
REMARK  9 active torsions:
REMARK  status: ('A' for Active; 'I' for Inactive)
REMARK    1  A    between atoms: N_4  and  C_5
REMARK    2  A    between atoms: C_5  and  C_6
REMARK    3  A    between atoms: C_6  and  C_7
REMARK    4  A    between atoms: C_6  and  N_20
REMARK    5  A    between atoms: C_7  and  CA_8
REMARK    6  A    between atoms: CA_8  and  N_9
REMARK    7  A    between atoms: CA_8  and  C_17
REMARK    8  A    between atoms: N_9  and  C_10
REMARK    9  A    between atoms: C_10  and  C_11
REMARK                            x       y       z     vdW  Elec       q    Type
REMARK                         _______ _______ _______ _____ _____    ______ ____
ROOT
ATOM      1  C   UNL     1       1.712   2.858 -23.713  0.00  0.00    +0.145 C 
ENDROOT
BRANCH   1   2
ATOM      2  C   UNL     1       2.639   3.731 -23.453  0.00  0.00    +0.368 C 
BRANCH   2   3
ATOM      3  N   UNL     1       2.336   4.991 -23.354  0.00  0.00    +0.045 N 
ATOM      4  O   UNL     1       1.292   5.459 -23.973  0.00  0.00    -0.581 OA
ATOM      5  O   UNL     1       3.075   5.784 -22.636  0.00  0.00    +0.035 OA
ENDBRANCH   2   3
BRANCH   2   6
ATOM      6  C   UNL     1       3.870   3.345 -23.291  0.00  0.00    +0.277 C 
BRANCH   6  11
ATOM      7  N   UNL     1       5.003   1.096 -22.643  0.00  0.00    -0.292 N 
ATOM      8  H   UNL     1       4.641   1.222 -23.550  0.00  0.00    +0.255 HD
ATOM      9  H   UNL     1       5.432   0.245 -22.398  0.00  0.00    +0.255 HD
ATOM     10  C   UNL     1       4.914   2.055 -21.770  0.00  0.00    +0.341 C 
ATOM     11  N   UNL     1       4.348   3.180 -22.094  0.00  0.00    -0.272 N 
ATOM     12  H   UNL     1       4.281   3.906 -21.433  0.00  0.00    +0.258 HD
ATOM     13  N   UNL     1       5.392   1.890 -20.572  0.00  0.00    -0.292 N 
ATOM     14  H   UNL     1       5.325   2.617 -19.911  0.00  0.00    +0.255 HD
ATOM     15  H   UNL     1       5.821   1.039 -20.326  0.00  0.00    +0.255 HD
ENDBRANCH   6  11
ENDBRANCH   2   6
ENDBRANCH   1   2
BRANCH   1  16
ATOM     16  CA  UNL     1       0.921   2.448 -22.766  0.00  0.00    +0.116 C 
BRANCH  16  17
ATOM     17  C   UNL     1       1.225   1.388 -22.078  0.00  0.00    +0.090 C 
ATOM     18  OXT UNL     1       1.910   0.430 -22.629  0.00  0.00    -0.544 OA
ATOM     19  O   UNL     1       0.845   1.286 -20.840  0.00  0.00    -0.544 OA
ENDBRANCH  16  17
BRANCH  16  20
ATOM     20  N   UNL     1      -0.175   3.099 -22.507  0.00  0.00    +0.237 N 
ATOM     21  H1  UNL     1      -0.485   2.692 -21.624  0.00  0.00    +0.202 HD
ATOM     22  H2  UNL     1       0.065   4.090 -22.508  0.00  0.00    +0.202 HD
BRANCH  20  23
ATOM     23  C   UNL     1      -1.211   2.962 -23.280  0.00  0.00    +0.166 C 
BRANCH  23  24
ATOM     24  C   UNL     1      -2.408   3.011 -22.777  0.00  0.00    -0.003 A 
ATOM     25  C   UNL     1      -2.622   2.591 -21.565  0.00  0.00    +0.009 A 
ATOM     26  C   UNL     1      -3.820   2.641 -21.063  0.00  0.00    +0.000 A 
ATOM     27  C   UNL     1      -4.804   3.111 -21.770  0.00  0.00    +0.000 A 
ATOM     28  C   UNL     1      -4.589   3.531 -22.981  0.00  0.00    +0.000 A 
ATOM     29  C   UNL     1      -3.392   3.481 -23.485  0.00  0.00    +0.009 A 
ENDBRANCH  23  24
ENDBRANCH  20  23
ENDBRANCH  16  20
ENDBRANCH   1  16
TORSDOF 9
ENDMDL
MODEL 2
REMARK VINA RESULT:    -7.990      1.381      2.805
REMARK INTER + INTRA:         -13.723
REMARK INTER:                 -12.249
REMARK INTRA:                  -1.474
REMARK UNBOUND:                -1.529
REMARK  Name = ZINC000096316334
REMARK  9 active torsions:
REMARK  status: ('A' for Active; 'I' for Inactive)
REMARK    1  A    between atoms: N_4  and  C_5
REMARK    2  A    between atoms: C_5  and  C_6
REMARK    3  A    between atoms: C_6  and  C_7
REMARK    4  A    between atoms: C_6  and  N_20
REMARK    5  A    between atoms: C_7  and  CA_8
REMARK    6  A    between atoms: CA_8  and  N_9
REMARK    7  A    between atoms: CA_8  and  C_17
REMARK    8  A    between atoms: N_9  and  C_10
REMARK    9  A    between atoms: C_10  and  C_11
REMARK                            x       y       z     vdW  Elec       q    Type
REMARK                         _______ _______ _______ _____ _____    ______ ____
ROOT
ATOM      1  C   UNL     1       0.996   2.154 -23.409  0.00  0.00    +0.145 C 
ENDROOT
BRANCH   1   2
ATOM      2  C   UNL     1       1.697   2.054 -22.319  0.00  0.00    +0.368 C 
BRANCH   2   3
ATOM      3  N   UNL     1       1.187   1.482 -21.269  0.00  0.00    +0.045 N 
ATOM      4  O   UNL     1       1.918   1.298 -20.210  0.00  0.00    -0.581 OA
ATOM      5  O   UNL     1      -0.054   1.093 -21.278  0.00  0.00    +0.035 OA
ENDBRANCH   2   3
BRANCH   2   6
ATOM      6  C   UNL     1       2.908   2.525 -22.279  0.00  0.00    +0.277 C 
BRANCH   6  11
ATOM      7  N   UNL     1       4.916   2.238 -20.652  0.00  0.00    -0.292 N 
ATOM      8  H   UNL     1       4.156   2.810 -20.400  0.00  0.00    +0.255 HD
ATOM      9  H   UNL     1       5.676   2.129 -20.036  0.00  0.00    +0.255 HD
ATOM     10  C   UNL     1       4.915   1.626 -21.799  0.00  0.00    +0.341 C 
ATOM     11  N   UNL     1       3.911   1.769 -22.613  0.00  0.00    -0.272 N 
ATOM     12  H   UNL     1       3.911   1.305 -23.481  0.00  0.00    +0.258 HD
ATOM     13  N   UNL     1       5.919   0.870 -22.133  0.00  0.00    -0.292 N 
ATOM     14  H   UNL     1       5.918   0.406 -23.002  0.00  0.00    +0.255 HD
ATOM     15  H   UNL     1       6.679   0.761 -21.517  0.00  0.00    +0.255 HD
ENDBRANCH   6  11
ENDBRANCH   2   6
ENDBRANCH   1   2
BRANCH   1  16
ATOM     16  CA  UNL     1       0.387   3.268 -23.690  0.00  0.00    +0.116 C 
BRANCH  16  17
ATOM     17  C   UNL     1       0.944   4.131 -24.486  0.00  0.00    +0.090 C 
ATOM     18  OXT UNL     1       1.232   3.796 -25.709  0.00  0.00    -0.544 OA
ATOM     19  O   UNL     1       1.213   5.329 -24.059  0.00  0.00    -0.544 OA
ENDBRANCH  16  17
BRANCH  16  20
ATOM     20  N   UNL     1      -0.781   3.518 -23.174  0.00  0.00    +0.237 N 
ATOM     21  H1  UNL     1      -0.883   2.793 -22.464  0.00  0.00    +0.202 HD
ATOM     22  H2  UNL     1      -0.759   4.487 -22.856  0.00  0.00    +0.202 HD
BRANCH  20  23
ATOM     23  C   UNL     1      -1.853   3.383 -23.896  0.00  0.00    +0.166 C 
BRANCH  23  24
ATOM     24  C   UNL     1      -3.021   3.360 -23.327  0.00  0.00    -0.003 A 
ATOM     25  C   UNL     1      -3.140   2.933 -22.103  0.00  0.00    +0.009 A 
ATOM     26  C   UNL     1      -4.308   2.909 -21.534  0.00  0.00    +0.000 A 
ATOM     27  C   UNL     1      -5.358   3.312 -22.186  0.00  0.00    +0.000 A 
ATOM     28  C   UNL     1      -5.239   3.738 -23.408  0.00  0.00    +0.000 A 
ATOM     29  C   UNL     1      -4.071   3.762 -23.979  0.00  0.00    +0.009 A 
ENDBRANCH  23  24
ENDBRANCH  20  23
ENDBRANCH  16  20
ENDBRANCH   1  16
TORSDOF 9
ENDMDL
MODEL 3
REMARK VINA RESULT:    -7.645      1.627      3.248
REMARK INTER + INTRA:         -13.196
REMARK INTER:                 -11.802
REMARK INTRA:                  -1.394
REMARK UNBOUND:                -1.529
REMARK  Name = ZINC000096316334
REMARK  9 active torsions:
REMARK  status: ('A' for Active; 'I' for Inactive)
REMARK    1  A    between atoms: N_4  and  C_5
REMARK    2  A    between atoms: C_5  and  C_6
REMARK    3  A    between atoms: C_6  and  C_7
REMARK    4  A    between atoms: C_6  and  N_20
REMARK    5  A    between atoms: C_7  and  CA_8
REMARK    6  A    between atoms: CA_8  and  N_9
REMARK    7  A    between atoms: CA_8  and  C_17
REMARK    8  A    between atoms: N_9  and  C_10
REMARK    9  A    between atoms: C_10  and  C_11
REMARK                            x       y       z     vdW  Elec       q    Type
REMARK                         _______ _______ _______ _____ _____    ______ ____
ROOT
ATOM      1  C   UNL     1       1.755   2.164 -23.563  0.00  0.00    +0.145 C 
ENDROOT
BRANCH   1   2
ATOM      2  C   UNL     1       1.805   1.563 -22.412  0.00  0.00    +0.368 C 
BRANCH   2   3
ATOM      3  N   UNL     1       0.711   1.342 -21.746  0.00  0.00    +0.045 N 
ATOM      4  O   UNL     1       0.708   1.447 -20.450  0.00  0.00    -0.581 OA
ATOM      5  O   UNL     1      -0.379   1.015 -22.375  0.00  0.00    +0.035 OA
ENDBRANCH   2   3
BRANCH   2   6
ATOM      6  C   UNL     1       2.950   1.183 -21.926  0.00  0.00    +0.277 C 
BRANCH   6  11
ATOM      7  N   UNL     1       5.538   0.953 -21.821  0.00  0.00    -0.292 N 
ATOM      8  H   UNL     1       5.011   0.337 -22.381  0.00  0.00    +0.255 HD
ATOM      9  H   UNL     1       6.517   0.865 -21.782  0.00  0.00    +0.255 HD
ATOM     10  C   UNL     1       4.939   1.880 -21.135  0.00  0.00    +0.341 C 
ATOM     11  N   UNL     1       3.645   1.996 -21.187  0.00  0.00    -0.272 N 
ATOM     12  H   UNL     1       3.192   2.698 -20.667  0.00  0.00    +0.258 HD
ATOM     13  N   UNL     1       5.633   2.693 -20.396  0.00  0.00    -0.292 N 
ATOM     14  H   UNL     1       5.180   3.396 -19.876  0.00  0.00    +0.255 HD
ATOM     15  H   UNL     1       6.614   2.606 -20.356  0.00  0.00    +0.255 HD
ENDBRANCH   6  11
ENDBRANCH   2   6
ENDBRANCH   1   2
BRANCH   1  16
ATOM     16  CA  UNL     1       1.400   3.413 -23.629  0.00  0.00    +0.116 C 
BRANCH  16  17
ATOM     17  C   UNL     1       2.301   4.349 -23.570  0.00  0.00    +0.090 C 
ATOM     18  OXT UNL     1       3.562   4.042 -23.630  0.00  0.00    -0.544 OA
ATOM     19  O   UNL     1       1.939   5.592 -23.451  0.00  0.00    -0.544 OA
ENDBRANCH  16  17
BRANCH  16  20
ATOM     20  N   UNL     1       0.144   3.727 -23.753  0.00  0.00    +0.237 N 
ATOM     21  H1  UNL     1      -0.324   3.070 -23.129  0.00  0.00    +0.202 HD
ATOM     22  H2  UNL     1       0.066   4.720 -23.533  0.00  0.00    +0.202 HD
BRANCH  20  23
ATOM     23  C   UNL     1      -0.462   3.545 -24.889  0.00  0.00    +0.166 C 
BRANCH  23  24
ATOM     24  C   UNL     1      -1.759   3.603 -24.950  0.00  0.00    -0.003 A 
ATOM     25  C   UNL     1      -2.365   3.437 -26.089  0.00  0.00    +0.009 A 
ATOM     26  C   UNL     1      -3.662   3.495 -26.149  0.00  0.00    +0.000 A 
ATOM     27  C   UNL     1      -4.354   3.720 -25.072  0.00  0.00    +0.000 A 
ATOM     28  C   UNL     1      -3.749   3.886 -23.934  0.00  0.00    +0.000 A 
ATOM     29  C   UNL     1      -2.451   3.828 -23.873  0.00  0.00    +0.009 A 
ENDBRANCH  23  24
ENDBRANCH  20  23
ENDBRANCH  16  20
ENDBRANCH   1  16
TORSDOF 9
ENDMDL
MODEL 4
REMARK VINA RESULT:    -7.583      2.081      2.756
REMARK INTER + INTRA:         -13.102
REMARK INTER:                 -11.998
REMARK INTRA:                  -1.103
REMARK UNBOUND:                -1.529
REMARK  Name = ZINC000096316334
REMARK  9 active torsions:
REMARK  status: ('A' for Active; 'I' for Inactive)
REMARK    1  A    between atoms: N_4  and  C_5
REMARK    2  A    between atoms: C_5  and  C_6
REMARK    3  A    between atoms: C_6  and  C_7
REMARK    4  A    between atoms: C_6  and  N_20
REMARK    5  A    between atoms: C_7  and  CA_8
REMARK    6  A    between atoms: CA_8  and  N_9
REMARK    7  A    between atoms: CA_8  and  C_17
REMARK    8  A    between atoms: N_9  and  C_10
REMARK    9  A    between atoms: C_10  and  C_11
REMARK                            x       y       z     vdW  Elec       q    Type
REMARK                         _______ _______ _______ _____ _____    ______ ____
ROOT
ATOM      1  C   UNL     1       1.547   2.320 -22.642  0.00  0.00    +0.145 C 
ENDROOT
BRANCH   1   2
ATOM      2  C   UNL     1       2.381   1.504 -23.214  0.00  0.00    +0.368 C 
BRANCH   2   3
ATOM      3  N   UNL     1       2.546   1.543 -24.503  0.00  0.00    +0.045 N 
ATOM      4  O   UNL     1       2.364   2.657 -25.148  0.00  0.00    -0.581 OA
ATOM      5  O   UNL     1       2.892   0.468 -25.147  0.00  0.00    +0.035 OA
ENDBRANCH   2   3
BRANCH   2   6
ATOM      6  C   UNL     1       3.050   0.650 -22.499  0.00  0.00    +0.277 C 
BRANCH   6  11
ATOM      7  N   UNL     1       5.637   0.809 -22.291  0.00  0.00    -0.292 N 
ATOM      8  H   UNL     1       5.228   0.527 -23.141  0.00  0.00    +0.255 HD
ATOM      9  H   UNL     1       6.616   0.870 -22.212  0.00  0.00    +0.255 HD
ATOM     10  C   UNL     1       4.883   1.102 -21.273  0.00  0.00    +0.341 C 
ATOM     11  N   UNL     1       3.590   1.022 -21.377  0.00  0.00    -0.272 N 
ATOM     12  H   UNL     1       3.020   1.244 -20.606  0.00  0.00    +0.258 HD
ATOM     13  N   UNL     1       5.423   1.475 -20.151  0.00  0.00    -0.292 N 
ATOM     14  H   UNL     1       4.852   1.697 -19.379  0.00  0.00    +0.255 HD
ATOM     15  H   UNL     1       6.403   1.535 -20.072  0.00  0.00    +0.255 HD
ENDBRANCH   6  11
ENDBRANCH   2   6
ENDBRANCH   1   2
BRANCH   1  16
ATOM     16  CA  UNL     1       0.282   2.026 -22.589  0.00  0.00    +0.116 C 
BRANCH  16  17
ATOM     17  C   UNL     1      -0.245   1.616 -21.474  0.00  0.00    +0.090 C 
ATOM     18  OXT UNL     1      -1.533   1.467 -21.380  0.00  0.00    -0.544 OA
ATOM     19  O   UNL     1       0.516   1.355 -20.453  0.00  0.00    -0.544 OA
ENDBRANCH  16  17
BRANCH  16  20
ATOM     20  N   UNL     1      -0.457   2.142 -23.653  0.00  0.00    +0.237 N 
ATOM     21  H1  UNL     1       0.174   1.869 -24.407  0.00  0.00    +0.202 HD
ATOM     22  H2  UNL     1      -1.284   1.564 -23.501  0.00  0.00    +0.202 HD
BRANCH  20  23
ATOM     23  C   UNL     1      -0.880   3.313 -24.027  0.00  0.00    +0.166 C 
BRANCH  23  24
ATOM     24  C   UNL     1      -2.086   3.450 -24.492  0.00  0.00    -0.003 A 
ATOM     25  C   UNL     1      -2.300   3.387 -25.773  0.00  0.00    +0.009 A 
ATOM     26  C   UNL     1      -3.506   3.524 -26.238  0.00  0.00    +0.000 A 
ATOM     27  C   UNL     1      -4.499   3.724 -25.423  0.00  0.00    +0.000 A 
ATOM     28  C   UNL     1      -4.285   3.787 -24.143  0.00  0.00    +0.000 A 
ATOM     29  C   UNL     1      -3.079   3.650 -23.677  0.00  0.00    +0.009 A 
ENDBRANCH  23  24
ENDBRANCH  20  23
ENDBRANCH  16  20
ENDBRANCH   1  16
TORSDOF 9
ENDMDL
MODEL 5
REMARK VINA RESULT:    -7.578      1.279      2.708
REMARK INTER + INTRA:         -13.094
REMARK INTER:                 -11.604
REMARK INTRA:                  -1.490
REMARK UNBOUND:                -1.529
REMARK  Name = ZINC000096316334
REMARK  9 active torsions:
REMARK  status: ('A' for Active; 'I' for Inactive)
REMARK    1  A    between atoms: N_4  and  C_5
REMARK    2  A    between atoms: C_5  and  C_6
REMARK    3  A    between atoms: C_6  and  C_7
REMARK    4  A    between atoms: C_6  and  N_20
REMARK    5  A    between atoms: C_7  and  CA_8
REMARK    6  A    between atoms: CA_8  and  N_9
REMARK    7  A    between atoms: CA_8  and  C_17
REMARK    8  A    between atoms: N_9  and  C_10
REMARK    9  A    between atoms: C_10  and  C_11
REMARK                            x       y       z     vdW  Elec       q    Type
REMARK                         _______ _______ _______ _____ _____    ______ ____
ROOT
ATOM      1  C   UNL     1       2.099   3.050 -24.325  0.00  0.00    +0.145 C 
ENDROOT
BRANCH   1   2
ATOM      2  C   UNL     1       3.031   2.224 -23.953  0.00  0.00    +0.368 C 
BRANCH   2   3
ATOM      3  N   UNL     1       2.816   0.942 -23.991  0.00  0.00    +0.045 N 
ATOM      4  O   UNL     1       2.552   0.295 -22.895  0.00  0.00    -0.581 OA
ATOM      5  O   UNL     1       2.867   0.308 -25.125  0.00  0.00    +0.035 OA
ENDBRANCH   2   3
BRANCH   2   6
ATOM      6  C   UNL     1       4.177   2.679 -23.541  0.00  0.00    +0.277 C 
BRANCH   6  11
ATOM      7  N   UNL     1       6.042   1.354 -22.305  0.00  0.00    -0.292 N 
ATOM      8  H   UNL     1       5.887   1.206 -23.266  0.00  0.00    +0.255 HD
ATOM      9  H   UNL     1       6.748   0.852 -21.838  0.00  0.00    +0.255 HD
ATOM     10  C   UNL     1       5.314   2.212 -21.655  0.00  0.00    +0.341 C 
ATOM     11  N   UNL     1       4.381   2.875 -22.272  0.00  0.00    -0.272 N 
ATOM     12  H   UNL     1       3.830   3.525 -21.780  0.00  0.00    +0.258 HD
ATOM     13  N   UNL     1       5.518   2.408 -20.386  0.00  0.00    -0.292 N 
ATOM     14  H   UNL     1       4.966   3.059 -19.893  0.00  0.00    +0.255 HD
ATOM     15  H   UNL     1       6.224   1.906 -19.918  0.00  0.00    +0.255 HD
ENDBRANCH   6  11
ENDBRANCH   2   6
ENDBRANCH   1   2
BRANCH   1  16
ATOM     16  CA  UNL     1       1.318   3.591 -23.438  0.00  0.00    +0.116 C 
BRANCH  16  17
ATOM     17  C   UNL     1       1.325   4.879 -23.263  0.00  0.00    +0.090 C 
ATOM     18  OXT UNL     1       2.366   5.458 -22.742  0.00  0.00    -0.544 OA
ATOM     19  O   UNL     1       0.293   5.588 -23.611  0.00  0.00    -0.544 OA
ENDBRANCH  16  17
BRANCH  16  20
ATOM     20  N   UNL     1       0.528   2.843 -22.724  0.00  0.00    +0.237 N 
ATOM     21  H1  UNL     1       1.076   1.995 -22.580  0.00  0.00    +0.202 HD
ATOM     22  H2  UNL     1       0.277   3.386 -21.898  0.00  0.00    +0.202 HD
BRANCH  20  23
ATOM     23  C   UNL     1      -0.583   2.399 -23.234  0.00  0.00    +0.166 C 
BRANCH  23  24
ATOM     24  C   UNL     1      -1.719   2.716 -22.690  0.00  0.00    -0.003 A 
ATOM     25  C   UNL     1      -1.840   2.730 -21.395  0.00  0.00    +0.009 A 
ATOM     26  C   UNL     1      -2.977   3.048 -20.852  0.00  0.00    +0.000 A 
ATOM     27  C   UNL     1      -3.995   3.352 -21.602  0.00  0.00    +0.000 A 
ATOM     28  C   UNL     1      -3.874   3.338 -22.895  0.00  0.00    +0.000 A 
ATOM     29  C   UNL     1      -2.737   3.020 -23.440  0.00  0.00    +0.009 A 
ENDBRANCH  23  24
ENDBRANCH  20  23
ENDBRANCH  16  20
ENDBRANCH   1  16
TORSDOF 9
ENDMDL
MODEL 6
REMARK VINA RESULT:    -7.493      1.361      1.724
REMARK INTER + INTRA:         -12.964
REMARK INTER:                 -11.431
REMARK INTRA:                  -1.533
REMARK UNBOUND:                -1.529
REMARK  Name = ZINC000096316334
REMARK  9 active torsions:
REMARK  status: ('A' for Active; 'I' for Inactive)
REMARK    1  A    between atoms: N_4  and  C_5
REMARK    2  A    between atoms: C_5  and  C_6
REMARK    3  A    between atoms: C_6  and  C_7
REMARK    4  A    between atoms: C_6  and  N_20
REMARK    5  A    between atoms: C_7  and  CA_8
REMARK    6  A    between atoms: CA_8  and  N_9
REMARK    7  A    between atoms: CA_8  and  C_17
REMARK    8  A    between atoms: N_9  and  C_10
REMARK    9  A    between atoms: C_10  and  C_11
REMARK                            x       y       z     vdW  Elec       q    Type
REMARK                         _______ _______ _______ _____ _____    ______ ____
ROOT
ATOM      1  C   UNL     1       1.392   3.336 -22.906  0.00  0.00    +0.145 C 
ENDROOT
BRANCH   1   2
ATOM      2  C   UNL     1       2.159   3.349 -23.954  0.00  0.00    +0.368 C 
BRANCH   2   3
ATOM      3  N   UNL     1       1.639   3.250 -25.142  0.00  0.00    +0.045 N 
ATOM      4  O   UNL     1       0.811   4.158 -25.566  0.00  0.00    -0.581 OA
ATOM      5  O   UNL     1       1.946   2.242 -25.904  0.00  0.00    +0.035 OA
ENDBRANCH   2   3
BRANCH   2   6
ATOM      6  C   UNL     1       3.447   3.461 -23.817  0.00  0.00    +0.277 C 
BRANCH   6  11
ATOM      7  N   UNL     1       4.900   3.158 -21.682  0.00  0.00    -0.292 N 
ATOM      8  H   UNL     1       4.344   3.964 -21.789  0.00  0.00    +0.255 HD
ATOM      9  H   UNL     1       5.450   3.044 -20.874  0.00  0.00    +0.255 HD
ATOM     10  C   UNL     1       4.907   2.246 -22.608  0.00  0.00    +0.341 C 
ATOM     11  N   UNL     1       4.181   2.397 -23.676  0.00  0.00    -0.272 N 
ATOM     12  H   UNL     1       4.187   1.706 -24.377  0.00  0.00    +0.258 HD
ATOM     13  N   UNL     1       5.641   1.182 -22.467  0.00  0.00    -0.292 N 
ATOM     14  H   UNL     1       5.646   0.491 -23.169  0.00  0.00    +0.255 HD
ATOM     15  H   UNL     1       6.191   1.068 -21.658  0.00  0.00    +0.255 HD
ENDBRANCH   6  11
ENDBRANCH   2   6
ENDBRANCH   1   2
BRANCH   1  16
ATOM     16  CA  UNL     1       0.754   2.251 -22.580  0.00  0.00    +0.116 C 
BRANCH  16  17
ATOM     17  C   UNL     1       1.388   1.271 -22.007  0.00  0.00    +0.090 C 
ATOM     18  OXT UNL     1       1.893   0.315 -22.728  0.00  0.00    -0.544 OA
ATOM     19  O   UNL     1       1.517   1.248 -20.715  0.00  0.00    -0.544 OA
ENDBRANCH  16  17
BRANCH  16  20
ATOM     20  N   UNL     1      -0.518   2.145 -22.827  0.00  0.00    +0.237 N 
ATOM     21  H1  UNL     1      -0.616   2.584 -23.743  0.00  0.00    +0.202 HD
ATOM     22  H2  UNL     1      -0.750   1.155 -22.754  0.00  0.00    +0.202 HD
BRANCH  20  23
ATOM     23  C   UNL     1      -1.378   2.788 -22.094  0.00  0.00    +0.166 C 
BRANCH  23  24
ATOM     24  C   UNL     1      -2.536   3.114 -22.586  0.00  0.00    -0.003 A 
ATOM     25  C   UNL     1      -3.606   3.016 -21.853  0.00  0.00    +0.009 A 
ATOM     26  C   UNL     1      -4.763   3.343 -22.346  0.00  0.00    +0.000 A 
ATOM     27  C   UNL     1      -4.853   3.768 -23.572  0.00  0.00    +0.000 A 
ATOM     28  C   UNL     1      -3.784   3.866 -24.304  0.00  0.00    +0.000 A 
ATOM     29  C   UNL     1      -2.625   3.539 -23.812  0.00  0.00    +0.009 A 
ENDBRANCH  23  24
ENDBRANCH  20  23
ENDBRANCH  16  20
ENDBRANCH   1  16
TORSDOF 9
ENDMDL
MODEL 7
REMARK VINA RESULT:    -7.288      1.868      2.431
REMARK INTER + INTRA:         -12.652
REMARK INTER:                 -11.532
REMARK INTRA:                  -1.120
REMARK UNBOUND:                -1.529
REMARK  Name = ZINC000096316334
REMARK  9 active torsions:
REMARK  status: ('A' for Active; 'I' for Inactive)
REMARK    1  A    between atoms: N_4  and  C_5
REMARK    2  A    between atoms: C_5  and  C_6
REMARK    3  A    between atoms: C_6  and  C_7
REMARK    4  A    between atoms: C_6  and  N_20
REMARK    5  A    between atoms: C_7  and  CA_8
REMARK    6  A    between atoms: CA_8  and  N_9
REMARK    7  A    between atoms: CA_8  and  C_17
REMARK    8  A    between atoms: N_9  and  C_10
REMARK    9  A    between atoms: C_10  and  C_11
REMARK                            x       y       z     vdW  Elec       q    Type
REMARK                         _______ _______ _______ _____ _____    ______ ____
ROOT
ATOM      1  C   UNL     1       1.654   3.789 -23.177  0.00  0.00    +0.145 C 
ENDROOT
BRANCH   1   2
ATOM      2  C   UNL     1       2.947   3.755 -23.055  0.00  0.00    +0.368 C 
BRANCH   2   3
ATOM      3  N   UNL     1       3.627   4.863 -23.035  0.00  0.00    +0.045 N 
ATOM      4  O   UNL     1       4.906   4.845 -23.269  0.00  0.00    -0.581 OA
ATOM      5  O   UNL     1       3.029   5.989 -22.781  0.00  0.00    +0.035 OA
ENDBRANCH   2   3
BRANCH   2   6
ATOM      6  C   UNL     1       3.562   2.614 -22.952  0.00  0.00    +0.277 C 
BRANCH   6  11
ATOM      7  N   UNL     1       2.821   0.160 -22.516  0.00  0.00    -0.292 N 
ATOM      8  H   UNL     1       2.682   0.567 -23.402  0.00  0.00    +0.255 HD
ATOM      9  H   UNL     1       2.540  -0.768 -22.351  0.00  0.00    +0.255 HD
ATOM     10  C   UNL     1       3.375   0.851 -21.565  0.00  0.00    +0.341 C 
ATOM     11  N   UNL     1       3.746   2.078 -21.782  0.00  0.00    -0.272 N 
ATOM     12  H   UNL     1       4.166   2.601 -21.062  0.00  0.00    +0.258 HD
ATOM     13  N   UNL     1       3.560   0.315 -20.395  0.00  0.00    -0.292 N 
ATOM     14  H   UNL     1       3.980   0.838 -19.674  0.00  0.00    +0.255 HD
ATOM     15  H   UNL     1       3.279  -0.614 -20.230  0.00  0.00    +0.255 HD
ENDBRANCH   6  11
ENDBRANCH   2   6
ENDBRANCH   1   2
BRANCH   1  16
ATOM     16  CA  UNL     1       1.069   3.077 -24.095  0.00  0.00    +0.116 C 
BRANCH  16  17
ATOM     17  C   UNL     1       1.417   3.208 -25.340  0.00  0.00    +0.090 C 
ATOM     18  OXT UNL     1       1.931   2.200 -25.981  0.00  0.00    -0.544 OA
ATOM     19  O   UNL     1       1.252   4.347 -25.944  0.00  0.00    -0.544 OA
ENDBRANCH  16  17
BRANCH  16  20
ATOM     20  N   UNL     1       0.135   2.233 -23.766  0.00  0.00    +0.237 N 
ATOM     21  H1  UNL     1      -0.670   2.555 -24.303  0.00  0.00    +0.202 HD
ATOM     22  H2  UNL     1       0.496   1.302 -23.973  0.00  0.00    +0.202 HD
BRANCH  20  23
ATOM     23  C   UNL     1      -0.312   2.202 -22.546  0.00  0.00    +0.166 C 
BRANCH  23  24
ATOM     24  C   UNL     1      -1.523   2.598 -22.288  0.00  0.00    -0.003 A 
ATOM     25  C   UNL     1      -2.387   2.721 -23.252  0.00  0.00    +0.009 A 
ATOM     26  C   UNL     1      -3.597   3.118 -22.993  0.00  0.00    +0.000 A 
ATOM     27  C   UNL     1      -3.945   3.392 -21.771  0.00  0.00    +0.000 A 
ATOM     28  C   UNL     1      -3.082   3.268 -20.808  0.00  0.00    +0.000 A 
ATOM     29  C   UNL     1      -1.871   2.872 -21.066  0.00  0.00    +0.009 A 
ENDBRANCH  23  24
ENDBRANCH  20  23
ENDBRANCH  16  20
ENDBRANCH   1  16
TORSDOF 9
ENDMDL
MODEL 8
REMARK VINA RESULT:    -7.195      2.605      4.557
REMARK INTER + INTRA:         -12.510
REMARK INTER:                 -10.981
REMARK INTRA:                  -1.529
REMARK UNBOUND:                -1.529
REMARK  Name = ZINC000096316334
REMARK  9 active torsions:
REMARK  status: ('A' for Active; 'I' for Inactive)
REMARK    1  A    between atoms: N_4  and  C_5
REMARK    2  A    between atoms: C_5  and  C_6
REMARK    3  A    between atoms: C_6  and  C_7
REMARK    4  A    between atoms: C_6  and  N_20
REMARK    5  A    between atoms: C_7  and  CA_8
REMARK    6  A    between atoms: CA_8  and  N_9
REMARK    7  A    between atoms: CA_8  and  C_17
REMARK    8  A    between atoms: N_9  and  C_10
REMARK    9  A    between atoms: C_10  and  C_11
REMARK                            x       y       z     vdW  Elec       q    Type
REMARK                         _______ _______ _______ _____ _____    ______ ____
ROOT
ATOM      1  C   UNL     1       0.673   2.690 -24.425  0.00  0.00    +0.145 C 
ENDROOT
BRANCH   1   2
ATOM      2  C   UNL     1      -0.093   3.719 -24.637  0.00  0.00    +0.368 C 
BRANCH   2   3
ATOM      3  N   UNL     1       0.076   4.808 -23.947  0.00  0.00    +0.045 N 
ATOM      4  O   UNL     1      -0.909   5.297 -23.255  0.00  0.00    -0.581 OA
ATOM      5  O   UNL     1       1.230   5.406 -23.949  0.00  0.00    +0.035 OA
ENDBRANCH   2   3
BRANCH   2   6
ATOM      6  C   UNL     1      -1.027   3.661 -25.539  0.00  0.00    +0.277 C 
BRANCH   6  11
ATOM      7  N   UNL     1      -2.900   3.476 -27.334  0.00  0.00    -0.292 N 
ATOM      8  H   UNL     1      -1.956   3.371 -27.594  0.00  0.00    +0.255 HD
ATOM      9  H   UNL     1      -3.609   3.406 -28.013  0.00  0.00    +0.255 HD
ATOM     10  C   UNL     1      -3.209   3.706 -26.092  0.00  0.00    +0.341 C 
ATOM     11  N   UNL     1      -2.273   3.799 -25.195  0.00  0.00    -0.272 N 
ATOM     12  H   UNL     1      -2.507   3.974 -24.255  0.00  0.00    +0.258 HD
ATOM     13  N   UNL     1      -4.455   3.845 -25.747  0.00  0.00    -0.292 N 
ATOM     14  H   UNL     1      -4.689   4.020 -24.807  0.00  0.00    +0.255 HD
ATOM     15  H   UNL     1      -5.164   3.775 -26.427  0.00  0.00    +0.255 HD
ENDBRANCH   6  11
ENDBRANCH   2   6
ENDBRANCH   1   2
BRANCH   1  16
ATOM     16  CA  UNL     1       0.629   2.073 -23.282  0.00  0.00    +0.116 C 
BRANCH  16  17
ATOM     17  C   UNL     1       1.730   1.820 -22.637  0.00  0.00    +0.090 C 
ATOM     18  OXT UNL     1       2.480   2.798 -22.225  0.00  0.00    -0.544 OA
ATOM     19  O   UNL     1       2.079   0.590 -22.406  0.00  0.00    -0.544 OA
ENDBRANCH  16  17
BRANCH  16  20
ATOM     20  N   UNL     1      -0.515   1.708 -22.783  0.00  0.00    +0.237 N 
ATOM     21  H1  UNL     1      -1.192   2.140 -23.411  0.00  0.00    +0.202 HD
ATOM     22  H2  UNL     1      -0.502   0.689 -22.735  0.00  0.00    +0.202 HD
BRANCH  20  23
ATOM     23  C   UNL     1      -0.878   2.135 -21.610  0.00  0.00    +0.166 C 
BRANCH  23  24
ATOM     24  C   UNL     1      -2.048   2.677 -21.451  0.00  0.00    -0.003 A 
ATOM     25  C   UNL     1      -2.991   2.459 -22.320  0.00  0.00    +0.009 A 
ATOM     26  C   UNL     1      -4.161   3.002 -22.160  0.00  0.00    +0.000 A 
ATOM     27  C   UNL     1      -4.390   3.763 -21.131  0.00  0.00    +0.000 A 
ATOM     28  C   UNL     1      -3.449   3.981 -20.263  0.00  0.00    +0.000 A 
ATOM     29  C   UNL     1      -2.278   3.438 -20.422  0.00  0.00    +0.009 A 
ENDBRANCH  23  24
ENDBRANCH  20  23
ENDBRANCH  16  20
ENDBRANCH   1  16
TORSDOF 9
ENDMDL
MODEL 9
REMARK VINA RESULT:    -7.129      1.582      2.094
REMARK INTER + INTRA:         -12.409
REMARK INTER:                 -10.888
REMARK INTRA:                  -1.521
REMARK UNBOUND:                -1.529
REMARK  Name = ZINC000096316334
REMARK  9 active torsions:
REMARK  status: ('A' for Active; 'I' for Inactive)
REMARK    1  A    between atoms: N_4  and  C_5
REMARK    2  A    between atoms: C_5  and  C_6
REMARK    3  A    between atoms: C_6  and  C_7
REMARK    4  A    between atoms: C_6  and  N_20
REMARK    5  A    between atoms: C_7  and  CA_8
REMARK    6  A    between atoms: CA_8  and  N_9
REMARK    7  A    between atoms: CA_8  and  C_17
REMARK    8  A    between atoms: N_9  and  C_10
REMARK    9  A    between atoms: C_10  and  C_11
REMARK                            x       y       z     vdW  Elec       q    Type
REMARK                         _______ _______ _______ _____ _____    ______ ____
ROOT
ATOM      1  C   UNL     1       1.681   2.333 -23.578  0.00  0.00    +0.145 C 
ENDROOT
BRANCH   1   2
ATOM      2  C   UNL     1       2.089   3.559 -23.442  0.00  0.00    +0.368 C 
BRANCH   2   3
ATOM      3  N   UNL     1       1.303   4.545 -23.758  0.00  0.00    +0.045 N 
ATOM      4  O   UNL     1       1.314   5.022 -24.967  0.00  0.00    -0.581 OA
ATOM      5  O   UNL     1       0.506   5.053 -22.866  0.00  0.00    +0.035 OA
ENDBRANCH   2   3
BRANCH   2   6
ATOM      6  C   UNL     1       3.284   3.801 -22.990  0.00  0.00    +0.277 C 
BRANCH   6  11
ATOM      7  N   UNL     1       5.705   4.279 -22.170  0.00  0.00    -0.292 N 
ATOM      8  H   UNL     1       5.385   3.351 -22.247  0.00  0.00    +0.255 HD
ATOM      9  H   UNL     1       6.621   4.460 -21.859  0.00  0.00    +0.255 HD
ATOM     10  C   UNL     1       4.915   5.265 -22.478  0.00  0.00    +0.341 C 
ATOM     11  N   UNL     1       3.705   5.027 -22.888  0.00  0.00    -0.272 N 
ATOM     12  H   UNL     1       3.108   5.773 -23.121  0.00  0.00    +0.258 HD
ATOM     13  N   UNL     1       5.336   6.491 -22.376  0.00  0.00    -0.292 N 
ATOM     14  H   UNL     1       4.738   7.238 -22.609  0.00  0.00    +0.255 HD
ATOM     15  H   UNL     1       6.253   6.673 -22.065  0.00  0.00    +0.255 HD
ENDBRANCH   6  11
ENDBRANCH   2   6
ENDBRANCH   1   2
BRANCH   1  16
ATOM     16  CA  UNL     1       1.336   1.643 -22.532  0.00  0.00    +0.116 C 
BRANCH  16  17
ATOM     17  C   UNL     1       2.108   0.693 -22.095  0.00  0.00    +0.090 C 
ATOM     18  OXT UNL     1       2.322  -0.359 -22.827  0.00  0.00    -0.544 OA
ATOM     19  O   UNL     1       2.667   0.797 -20.926  0.00  0.00    -0.544 OA
ENDBRANCH  16  17
BRANCH  16  20
ATOM     20  N   UNL     1       0.217   1.903 -21.922  0.00  0.00    +0.237 N 
ATOM     21  H1  UNL     1       0.116   1.120 -21.275  0.00  0.00    +0.202 HD
ATOM     22  H2  UNL     1       0.311   2.835 -21.519  0.00  0.00    +0.202 HD
BRANCH  20  23
ATOM     23  C   UNL     1      -0.902   1.890 -22.583  0.00  0.00    +0.166 C 
BRANCH  23  24
ATOM     24  C   UNL     1      -1.946   2.499 -22.105  0.00  0.00    -0.003 A 
ATOM     25  C   UNL     1      -2.997   2.674 -22.852  0.00  0.00    +0.009 A 
ATOM     26  C   UNL     1      -4.040   3.282 -22.373  0.00  0.00    +0.000 A 
ATOM     27  C   UNL     1      -4.036   3.716 -21.147  0.00  0.00    +0.000 A 
ATOM     28  C   UNL     1      -2.986   3.541 -20.401  0.00  0.00    +0.000 A 
ATOM     29  C   UNL     1      -1.942   2.933 -20.879  0.00  0.00    +0.009 A 
ENDBRANCH  23  24
ENDBRANCH  20  23
ENDBRANCH  16  20
ENDBRANCH   1  16
TORSDOF 9
ENDMDL
