MODEL 1
REMARK VINA RESULT:    -9.120      0.000      0.000
REMARK INTER + INTRA:          -9.653
REMARK INTER:                  -9.653
REMARK INTRA:                   0.000
REMARK UNBOUND:                 0.000
REMARK  Name = ZINC000004104790
REMARK  2 active torsions:
REMARK  status: ('A' for Active; 'I' for Inactive)
REMARK    1  A    between atoms: C_11  and  O_12
REMARK    2  A    between atoms: C_15  and  O_16
REMARK                            x       y       z     vdW  Elec       q    Type
REMARK                         _______ _______ _______ _____ _____    ______ ____
ROOT
ATOM      1  O   UNL     1      -1.887   3.599 -25.415  0.00  0.00    -0.286 OA
ATOM      2  C   UNL     1      -1.895   3.171 -24.187  0.00  0.00    +0.204 A 
ATOM      3  C   UNL     1      -2.993   3.211 -23.493  0.00  0.00    +0.065 A 
ATOM      4  C   UNL     1      -4.084   3.677 -24.026  0.00  0.00    +0.015 A 
ATOM      5  C   UNL     1      -5.182   3.716 -23.330  0.00  0.00    +0.001 A 
ATOM      6  C   UNL     1      -5.190   3.289 -22.104  0.00  0.00    +0.004 A 
ATOM      7  C   UNL     1      -4.100   2.823 -21.570  0.00  0.00    +0.047 A 
ATOM      8  C   UNL     1      -3.001   2.783 -22.265  0.00  0.00    +0.139 A 
ATOM      9  O   UNL     1      -1.912   2.317 -21.731  0.00  0.00    -0.451 OA
ATOM     10  C   UNL     1      -0.814   2.278 -22.426  0.00  0.00    +0.184 A 
ATOM     11  C   UNL     1       0.277   1.811 -21.893  0.00  0.00    +0.160 A 
ATOM     12  C   UNL     1       1.375   1.772 -22.587  0.00  0.00    +0.053 A 
ATOM     13  C   UNL     1       1.383   2.199 -23.815  0.00  0.00    +0.050 A 
ATOM     14  C   UNL     1       0.293   2.666 -24.348  0.00  0.00    +0.131 A 
ATOM     15  C   UNL     1      -0.806   2.705 -23.654  0.00  0.00    +0.109 A 
ENDROOT
BRANCH  14  16
ATOM     16  O   UNL     1       0.301   3.093 -25.576  0.00  0.00    -0.506 OA
ATOM     17  H   UNL     1      -0.233   2.673 -26.222  0.00  0.00    +0.292 HD
ENDBRANCH  14  16
BRANCH  11  18
ATOM     18  O   UNL     1       0.269   1.384 -20.665  0.00  0.00    -0.503 OA
ATOM     19  H   UNL     1       0.072   0.485 -20.483  0.00  0.00    +0.292 HD
ENDBRANCH  11  18
TORSDOF 2
ENDMDL
MODEL 2
REMARK VINA RESULT:    -8.827      1.215      5.247
REMARK INTER + INTRA:          -9.343
REMARK INTER:                  -9.343
REMARK INTRA:                   0.000
REMARK UNBOUND:                 0.000
REMARK  Name = ZINC000004104790
REMARK  2 active torsions:
REMARK  status: ('A' for Active; 'I' for Inactive)
REMARK    1  A    between atoms: C_11  and  O_12
REMARK    2  A    between atoms: C_15  and  O_16
REMARK                            x       y       z     vdW  Elec       q    Type
REMARK                         _______ _______ _______ _____ _____    ______ ____
ROOT
ATOM      1  O   UNL     1      -1.715   2.444 -21.382  0.00  0.00    -0.286 OA
ATOM      2  C   UNL     1      -1.905   2.914 -22.579  0.00  0.00    +0.204 A 
ATOM      3  C   UNL     1      -0.899   3.054 -23.390  0.00  0.00    +0.065 A 
ATOM      4  C   UNL     1       0.299   2.725 -23.003  0.00  0.00    +0.015 A 
ATOM      5  C   UNL     1       1.305   2.866 -23.814  0.00  0.00    +0.001 A 
ATOM      6  C   UNL     1       1.115   3.335 -25.011  0.00  0.00    +0.004 A 
ATOM      7  C   UNL     1      -0.081   3.664 -25.398  0.00  0.00    +0.047 A 
ATOM      8  C   UNL     1      -1.089   3.524 -24.587  0.00  0.00    +0.139 A 
ATOM      9  O   UNL     1      -2.285   3.853 -24.974  0.00  0.00    -0.451 OA
ATOM     10  C   UNL     1      -3.292   3.712 -24.164  0.00  0.00    +0.184 A 
ATOM     11  C   UNL     1      -4.489   4.042 -24.550  0.00  0.00    +0.160 A 
ATOM     12  C   UNL     1      -5.495   3.901 -23.740  0.00  0.00    +0.053 A 
ATOM     13  C   UNL     1      -5.305   3.432 -22.543  0.00  0.00    +0.050 A 
ATOM     14  C   UNL     1      -4.109   3.103 -22.156  0.00  0.00    +0.131 A 
ATOM     15  C   UNL     1      -3.101   3.243 -22.966  0.00  0.00    +0.109 A 
ENDROOT
BRANCH  14  16
ATOM     16  O   UNL     1      -3.919   2.633 -20.959  0.00  0.00    -0.506 OA
ATOM     17  H   UNL     1      -3.063   2.653 -20.578  0.00  0.00    +0.292 HD
ENDBRANCH  14  16
BRANCH  11  18
ATOM     18  O   UNL     1      -4.679   4.511 -25.748  0.00  0.00    -0.503 OA
ATOM     19  H   UNL     1      -4.184   5.250 -26.045  0.00  0.00    +0.292 HD
ENDBRANCH  11  18
TORSDOF 2
ENDMDL
MODEL 3
REMARK VINA RESULT:    -8.748      0.973      4.386
REMARK INTER + INTRA:          -9.259
REMARK INTER:                  -9.259
REMARK INTRA:                   0.000
REMARK UNBOUND:                 0.000
REMARK  Name = ZINC000004104790
REMARK  2 active torsions:
REMARK  status: ('A' for Active; 'I' for Inactive)
REMARK    1  A    between atoms: C_11  and  O_12
REMARK    2  A    between atoms: C_15  and  O_16
REMARK                            x       y       z     vdW  Elec       q    Type
REMARK                         _______ _______ _______ _____ _____    ______ ____
ROOT
ATOM      1  O   UNL     1      -1.554   3.753 -25.071  0.00  0.00    -0.286 OA
ATOM      2  C   UNL     1      -1.795   3.227 -23.907  0.00  0.00    +0.204 A 
ATOM      3  C   UNL     1      -0.836   2.654 -23.242  0.00  0.00    +0.065 A 
ATOM      4  C   UNL     1       0.364   2.606 -23.741  0.00  0.00    +0.015 A 
ATOM      5  C   UNL     1       1.322   2.033 -23.075  0.00  0.00    +0.001 A 
ATOM      6  C   UNL     1       1.081   1.507 -21.911  0.00  0.00    +0.004 A 
ATOM      7  C   UNL     1      -0.118   1.555 -21.412  0.00  0.00    +0.047 A 
ATOM      8  C   UNL     1      -1.078   2.128 -22.078  0.00  0.00    +0.139 A 
ATOM      9  O   UNL     1      -2.277   2.176 -21.579  0.00  0.00    -0.451 OA
ATOM     10  C   UNL     1      -3.235   2.749 -22.244  0.00  0.00    +0.184 A 
ATOM     11  C   UNL     1      -4.435   2.797 -21.745  0.00  0.00    +0.160 A 
ATOM     12  C   UNL     1      -5.393   3.370 -22.410  0.00  0.00    +0.053 A 
ATOM     13  C   UNL     1      -5.152   3.895 -23.574  0.00  0.00    +0.050 A 
ATOM     14  C   UNL     1      -3.953   3.848 -24.073  0.00  0.00    +0.131 A 
ATOM     15  C   UNL     1      -2.994   3.275 -23.408  0.00  0.00    +0.109 A 
ENDROOT
BRANCH  14  16
ATOM     16  O   UNL     1      -3.712   4.374 -25.238  0.00  0.00    -0.506 OA
ATOM     17  H   UNL     1      -4.381   4.385 -25.894  0.00  0.00    +0.292 HD
ENDBRANCH  14  16
BRANCH  11  18
ATOM     18  O   UNL     1      -4.676   2.271 -20.581  0.00  0.00    -0.503 OA
ATOM     19  H   UNL     1      -5.350   2.628 -20.036  0.00  0.00    +0.292 HD
ENDBRANCH  11  18
TORSDOF 2
ENDMDL
MODEL 4
REMARK VINA RESULT:    -8.655      0.949      2.929
REMARK INTER + INTRA:          -9.161
REMARK INTER:                  -9.161
REMARK INTRA:                   0.000
REMARK UNBOUND:                 0.000
REMARK  Name = ZINC000004104790
REMARK  2 active torsions:
REMARK  status: ('A' for Active; 'I' for Inactive)
REMARK    1  A    between atoms: C_11  and  O_12
REMARK    2  A    between atoms: C_15  and  O_16
REMARK                            x       y       z     vdW  Elec       q    Type
REMARK                         _______ _______ _______ _____ _____    ______ ____
ROOT
ATOM      1  O   UNL     1      -1.850   2.074 -21.675  0.00  0.00    -0.286 OA
ATOM      2  C   UNL     1      -1.729   2.690 -22.813  0.00  0.00    +0.204 A 
ATOM      3  C   UNL     1      -2.774   3.212 -23.384  0.00  0.00    +0.065 A 
ATOM      4  C   UNL     1      -3.940   3.117 -22.816  0.00  0.00    +0.015 A 
ATOM      5  C   UNL     1      -4.985   3.639 -23.388  0.00  0.00    +0.001 A 
ATOM      6  C   UNL     1      -4.864   4.255 -24.525  0.00  0.00    +0.004 A 
ATOM      7  C   UNL     1      -3.698   4.350 -25.093  0.00  0.00    +0.047 A 
ATOM      8  C   UNL     1      -2.653   3.828 -24.522  0.00  0.00    +0.139 A 
ATOM      9  O   UNL     1      -1.487   3.923 -25.090  0.00  0.00    -0.451 OA
ATOM     10  C   UNL     1      -0.443   3.401 -24.519  0.00  0.00    +0.184 A 
ATOM     11  C   UNL     1       0.724   3.495 -25.086  0.00  0.00    +0.160 A 
ATOM     12  C   UNL     1       1.769   2.974 -24.516  0.00  0.00    +0.053 A 
ATOM     13  C   UNL     1       1.648   2.357 -23.377  0.00  0.00    +0.050 A 
ATOM     14  C   UNL     1       0.482   2.263 -22.810  0.00  0.00    +0.131 A 
ATOM     15  C   UNL     1      -0.563   2.785 -23.381  0.00  0.00    +0.109 A 
ENDROOT
BRANCH  14  16
ATOM     16  O   UNL     1       0.361   1.646 -21.672  0.00  0.00    -0.506 OA
ATOM     17  H   UNL     1      -0.241   0.934 -21.586  0.00  0.00    +0.292 HD
ENDBRANCH  14  16
BRANCH  11  18
ATOM     18  O   UNL     1       0.845   4.112 -26.225  0.00  0.00    -0.503 OA
ATOM     19  H   UNL     1       1.226   3.671 -26.958  0.00  0.00    +0.292 HD
ENDBRANCH  11  18
TORSDOF 2
ENDMDL
MODEL 5
REMARK VINA RESULT:    -8.448      1.281      3.432
REMARK INTER + INTRA:          -8.941
REMARK INTER:                  -8.941
REMARK INTRA:                   0.000
REMARK UNBOUND:                 0.000
REMARK  Name = ZINC000004104790
REMARK  2 active torsions:
REMARK  status: ('A' for Active; 'I' for Inactive)
REMARK    1  A    between atoms: C_11  and  O_12
REMARK    2  A    between atoms: C_15  and  O_16
REMARK                            x       y       z     vdW  Elec       q    Type
REMARK                         _______ _______ _______ _____ _____    ______ ____
ROOT
ATOM      1  O   UNL     1       0.393   1.451 -20.627  0.00  0.00    -0.286 OA
ATOM      2  C   UNL     1       0.168   1.876 -21.834  0.00  0.00    +0.204 A 
ATOM      3  C   UNL     1      -1.003   2.340 -22.153  0.00  0.00    +0.065 A 
ATOM      4  C   UNL     1      -1.951   2.379 -21.263  0.00  0.00    +0.015 A 
ATOM      5  C   UNL     1      -3.123   2.843 -21.582  0.00  0.00    +0.001 A 
ATOM      6  C   UNL     1      -3.347   3.268 -22.789  0.00  0.00    +0.004 A 
ATOM      7  C   UNL     1      -2.400   3.229 -23.678  0.00  0.00    +0.047 A 
ATOM      8  C   UNL     1      -1.228   2.765 -23.360  0.00  0.00    +0.139 A 
ATOM      9  O   UNL     1      -0.281   2.726 -24.250  0.00  0.00    -0.451 OA
ATOM     10  C   UNL     1       0.891   2.262 -23.932  0.00  0.00    +0.184 A 
ATOM     11  C   UNL     1       1.838   2.223 -24.822  0.00  0.00    +0.160 A 
ATOM     12  C   UNL     1       3.010   1.759 -24.503  0.00  0.00    +0.053 A 
ATOM     13  C   UNL     1       3.235   1.334 -23.296  0.00  0.00    +0.050 A 
ATOM     14  C   UNL     1       2.288   1.373 -22.406  0.00  0.00    +0.131 A 
ATOM     15  C   UNL     1       1.115   1.837 -22.724  0.00  0.00    +0.109 A 
ENDROOT
BRANCH  14  16
ATOM     16  O   UNL     1       2.513   0.948 -21.198  0.00  0.00    -0.506 OA
ATOM     17  H   UNL     1       3.347   0.583 -20.978  0.00  0.00    +0.292 HD
ENDBRANCH  14  16
BRANCH  11  18
ATOM     18  O   UNL     1       1.614   2.648 -26.029  0.00  0.00    -0.503 OA
ATOM     19  H   UNL     1       1.709   2.065 -26.757  0.00  0.00    +0.292 HD
ENDBRANCH  11  18
TORSDOF 2
ENDMDL
MODEL 6
REMARK VINA RESULT:    -8.295      2.453      3.537
REMARK INTER + INTRA:          -8.780
REMARK INTER:                  -8.780
REMARK INTRA:                   0.000
REMARK UNBOUND:                 0.000
REMARK  Name = ZINC000004104790
REMARK  2 active torsions:
REMARK  status: ('A' for Active; 'I' for Inactive)
REMARK    1  A    between atoms: C_11  and  O_12
REMARK    2  A    between atoms: C_15  and  O_16
REMARK                            x       y       z     vdW  Elec       q    Type
REMARK                         _______ _______ _______ _____ _____    ______ ____
ROOT
ATOM      1  O   UNL     1       1.950   5.337 -23.252  0.00  0.00    -0.286 OA
ATOM      2  C   UNL     1       1.542   4.103 -23.268  0.00  0.00    +0.204 A 
ATOM      3  C   UNL     1       0.282   3.837 -23.444  0.00  0.00    +0.065 A 
ATOM      4  C   UNL     1      -0.571   4.806 -23.604  0.00  0.00    +0.015 A 
ATOM      5  C   UNL     1      -1.831   4.539 -23.779  0.00  0.00    +0.001 A 
ATOM      6  C   UNL     1      -2.239   3.306 -23.795  0.00  0.00    +0.004 A 
ATOM      7  C   UNL     1      -1.387   2.338 -23.636  0.00  0.00    +0.047 A 
ATOM      8  C   UNL     1      -0.126   2.603 -23.460  0.00  0.00    +0.139 A 
ATOM      9  O   UNL     1       0.726   1.635 -23.301  0.00  0.00    -0.451 OA
ATOM     10  C   UNL     1       1.986   1.901 -23.125  0.00  0.00    +0.184 A 
ATOM     11  C   UNL     1       2.839   0.932 -22.965  0.00  0.00    +0.160 A 
ATOM     12  C   UNL     1       4.099   1.198 -22.790  0.00  0.00    +0.053 A 
ATOM     13  C   UNL     1       4.507   2.432 -22.774  0.00  0.00    +0.050 A 
ATOM     14  C   UNL     1       3.655   3.400 -22.933  0.00  0.00    +0.131 A 
ATOM     15  C   UNL     1       2.394   3.135 -23.109  0.00  0.00    +0.109 A 
ENDROOT
BRANCH  14  16
ATOM     16  O   UNL     1       4.063   4.635 -22.917  0.00  0.00    -0.506 OA
ATOM     17  H   UNL     1       3.776   5.232 -23.580  0.00  0.00    +0.292 HD
ENDBRANCH  14  16
BRANCH  11  18
ATOM     18  O   UNL     1       2.431  -0.302 -22.981  0.00  0.00    -0.503 OA
ATOM     19  H   UNL     1       2.688  -0.890 -22.298  0.00  0.00    +0.292 HD
ENDBRANCH  11  18
TORSDOF 2
ENDMDL
MODEL 7
REMARK VINA RESULT:    -8.217      2.151      3.303
REMARK INTER + INTRA:          -8.697
REMARK INTER:                  -8.697
REMARK INTRA:                   0.000
REMARK UNBOUND:                 0.000
REMARK  Name = ZINC000004104790
REMARK  2 active torsions:
REMARK  status: ('A' for Active; 'I' for Inactive)
REMARK    1  A    between atoms: C_11  and  O_12
REMARK    2  A    between atoms: C_15  and  O_16
REMARK                            x       y       z     vdW  Elec       q    Type
REMARK                         _______ _______ _______ _____ _____    ______ ____
ROOT
ATOM      1  O   UNL     1       1.967   2.235 -25.410  0.00  0.00    -0.286 OA
ATOM      2  C   UNL     1       1.532   2.279 -24.186  0.00  0.00    +0.204 A 
ATOM      3  C   UNL     1       0.383   2.827 -23.923  0.00  0.00    +0.065 A 
ATOM      4  C   UNL     1      -0.332   3.331 -24.885  0.00  0.00    +0.015 A 
ATOM      5  C   UNL     1      -1.482   3.878 -24.622  0.00  0.00    +0.001 A 
ATOM      6  C   UNL     1      -1.916   3.922 -23.398  0.00  0.00    +0.004 A 
ATOM      7  C   UNL     1      -1.201   3.418 -22.437  0.00  0.00    +0.047 A 
ATOM      8  C   UNL     1      -0.051   2.871 -22.699  0.00  0.00    +0.139 A 
ATOM      9  O   UNL     1       0.663   2.367 -21.737  0.00  0.00    -0.451 OA
ATOM     10  C   UNL     1       1.812   1.820 -21.999  0.00  0.00    +0.184 A 
ATOM     11  C   UNL     1       2.528   1.316 -21.037  0.00  0.00    +0.160 A 
ATOM     12  C   UNL     1       3.677   0.768 -21.299  0.00  0.00    +0.053 A 
ATOM     13  C   UNL     1       4.111   0.724 -22.524  0.00  0.00    +0.050 A 
ATOM     14  C   UNL     1       3.397   1.228 -23.486  0.00  0.00    +0.131 A 
ATOM     15  C   UNL     1       2.247   1.776 -23.224  0.00  0.00    +0.109 A 
ENDROOT
BRANCH  14  16
ATOM     16  O   UNL     1       3.831   1.184 -24.710  0.00  0.00    -0.506 OA
ATOM     17  H   UNL     1       3.431   1.717 -25.369  0.00  0.00    +0.292 HD
ENDBRANCH  14  16
BRANCH  11  18
ATOM     18  O   UNL     1       2.093   1.360 -19.812  0.00  0.00    -0.503 OA
ATOM     19  H   UNL     1       2.667   1.145 -19.103  0.00  0.00    +0.292 HD
ENDBRANCH  11  18
TORSDOF 2
ENDMDL
MODEL 8
REMARK VINA RESULT:    -7.979      3.117      4.499
REMARK INTER + INTRA:          -8.446
REMARK INTER:                  -8.446
REMARK INTRA:                   0.000
REMARK UNBOUND:                 0.000
REMARK  Name = ZINC000004104790
REMARK  2 active torsions:
REMARK  status: ('A' for Active; 'I' for Inactive)
REMARK    1  A    between atoms: C_11  and  O_12
REMARK    2  A    between atoms: C_15  and  O_16
REMARK                            x       y       z     vdW  Elec       q    Type
REMARK                         _______ _______ _______ _____ _____    ______ ____
ROOT
ATOM      1  O   UNL     1       1.939   1.392 -24.204  0.00  0.00    -0.286 OA
ATOM      2  C   UNL     1       1.926   2.641 -23.841  0.00  0.00    +0.204 A 
ATOM      3  C   UNL     1       0.798   3.277 -23.740  0.00  0.00    +0.065 A 
ATOM      4  C   UNL     1      -0.320   2.665 -24.001  0.00  0.00    +0.015 A 
ATOM      5  C   UNL     1      -1.449   3.302 -23.899  0.00  0.00    +0.001 A 
ATOM      6  C   UNL     1      -1.461   4.549 -23.537  0.00  0.00    +0.004 A 
ATOM      7  C   UNL     1      -0.345   5.161 -23.275  0.00  0.00    +0.047 A 
ATOM      8  C   UNL     1       0.785   4.525 -23.377  0.00  0.00    +0.139 A 
ATOM      9  O   UNL     1       1.902   5.137 -23.115  0.00  0.00    -0.451 OA
ATOM     10  C   UNL     1       3.030   4.501 -23.217  0.00  0.00    +0.184 A 
ATOM     11  C   UNL     1       4.148   5.113 -22.956  0.00  0.00    +0.160 A 
ATOM     12  C   UNL     1       5.277   4.477 -23.057  0.00  0.00    +0.053 A 
ATOM     13  C   UNL     1       5.289   3.229 -23.420  0.00  0.00    +0.050 A 
ATOM     14  C   UNL     1       4.172   2.617 -23.681  0.00  0.00    +0.131 A 
ATOM     15  C   UNL     1       3.043   3.253 -23.580  0.00  0.00    +0.109 A 
ENDROOT
BRANCH  14  16
ATOM     16  O   UNL     1       4.185   1.368 -24.044  0.00  0.00    -0.506 OA
ATOM     17  H   UNL     1       3.603   1.070 -24.715  0.00  0.00    +0.292 HD
ENDBRANCH  14  16
BRANCH  11  18
ATOM     18  O   UNL     1       4.135   6.361 -22.593  0.00  0.00    -0.503 OA
ATOM     19  H   UNL     1       4.912   6.880 -22.672  0.00  0.00    +0.292 HD
ENDBRANCH  11  18
TORSDOF 2
ENDMDL
MODEL 9
REMARK VINA RESULT:    -7.777      2.610      5.780
REMARK INTER + INTRA:          -8.231
REMARK INTER:                  -8.231
REMARK INTRA:                   0.000
REMARK UNBOUND:                 0.000
REMARK  Name = ZINC000004104790
REMARK  2 active torsions:
REMARK  status: ('A' for Active; 'I' for Inactive)
REMARK    1  A    between atoms: C_11  and  O_12
REMARK    2  A    between atoms: C_15  and  O_16
REMARK                            x       y       z     vdW  Elec       q    Type
REMARK                         _______ _______ _______ _____ _____    ______ ____
ROOT
ATOM      1  O   UNL     1       3.470   4.824 -22.875  0.00  0.00    -0.286 OA
ATOM      2  C   UNL     1       2.776   3.725 -22.875  0.00  0.00    +0.204 A 
ATOM      3  C   UNL     1       3.327   2.609 -22.500  0.00  0.00    +0.065 A 
ATOM      4  C   UNL     1       4.572   2.592 -22.125  0.00  0.00    +0.015 A 
ATOM      5  C   UNL     1       5.122   1.475 -21.750  0.00  0.00    +0.001 A 
ATOM      6  C   UNL     1       4.428   0.376 -21.750  0.00  0.00    +0.004 A 
ATOM      7  C   UNL     1       3.184   0.393 -22.125  0.00  0.00    +0.047 A 
ATOM      8  C   UNL     1       2.633   1.510 -22.500  0.00  0.00    +0.139 A 
ATOM      9  O   UNL     1       1.388   1.526 -22.875  0.00  0.00    -0.451 OA
ATOM     10  C   UNL     1       0.838   2.642 -23.250  0.00  0.00    +0.184 A 
ATOM     11  C   UNL     1      -0.408   2.660 -23.625  0.00  0.00    +0.160 A 
ATOM     12  C   UNL     1      -0.958   3.776 -24.000  0.00  0.00    +0.053 A 
ATOM     13  C   UNL     1      -0.264   4.875 -24.000  0.00  0.00    +0.050 A 
ATOM     14  C   UNL     1       0.980   4.858 -23.625  0.00  0.00    +0.131 A 
ATOM     15  C   UNL     1       1.532   3.742 -23.250  0.00  0.00    +0.109 A 
ENDROOT
BRANCH  14  16
ATOM     16  O   UNL     1       1.674   5.958 -23.625  0.00  0.00    -0.506 OA
ATOM     17  H   UNL     1       1.281   6.760 -23.342  0.00  0.00    +0.292 HD
ENDBRANCH  14  16
BRANCH  11  18
ATOM     18  O   UNL     1      -1.102   1.560 -23.625  0.00  0.00    -0.503 OA
ATOM     19  H   UNL     1      -1.793   1.443 -23.003  0.00  0.00    +0.292 HD
ENDBRANCH  11  18
TORSDOF 2
ENDMDL
