MODEL 1
REMARK VINA RESULT:    -8.553      0.000      0.000
REMARK INTER + INTRA:         -14.935
REMARK INTER:                 -13.582
REMARK INTRA:                  -1.354
REMARK UNBOUND:                -0.883
REMARK  Name = ZINC000008382372
REMARK  13 active torsions:
REMARK  status: ('A' for Active; 'I' for Inactive)
REMARK    1  A    between atoms: C_1  and  C_2
REMARK    2  A    between atoms: C_2  and  C_3
REMARK    3  A    between atoms: C_3  and  C_4
REMARK    4  A    between atoms: C_4  and  C_5
REMARK    5  A    between atoms: C_5  and  C_6
REMARK    6  A    between atoms: C_6  and  C_7
REMARK    7  A    between atoms: C_7  and  C_8
REMARK    8  A    between atoms: C_8  and  C_9
REMARK    9  A    between atoms: C_9  and  C_10
REMARK   10  A    between atoms: C_10  and  C_11
REMARK   11  A    between atoms: C_11  and  C_12
REMARK   12  A    between atoms: O_19  and  C_20
REMARK   13  A    between atoms: C_20  and  C_21
REMARK                            x       y       z     vdW  Elec       q    Type
REMARK                         _______ _______ _______ _____ _____    ______ ____
ROOT
ATOM      1  C   UNL     1      -0.654   3.354 -22.678  0.00  0.00    -0.011 C 
ATOM      2  C   UNL     1      -0.050   4.410 -23.136  0.00  0.00    +0.169 C 
ATOM      3  C   UNL     1       1.186   4.332 -23.531  0.00  0.00    -0.089 C 
ATOM      4  C   UNL     1       1.819   3.198 -23.468  0.00  0.00    +0.035 C 
ATOM      5  C   UNL     1       1.215   2.141 -23.010  0.00  0.00    +0.118 C 
ATOM      6  O   UNL     1       1.847   1.007 -22.947  0.00  0.00    -0.427 OA
ATOM      7  O   UNL     1       1.790   5.389 -23.989  0.00  0.00    -0.826 OA
ATOM      8  O   UNL     1      -0.682   5.544 -23.199  0.00  0.00    -0.289 OA
ATOM      9  C   UNL     1      -0.022   2.220 -22.615  0.00  0.00    -0.090 C 
ATOM     10  O   UNL     1      -0.625   1.163 -22.157  0.00  0.00    -0.826 OA
ENDROOT
BRANCH   6  11
ATOM     11  C   UNL     1       3.083   0.930 -23.342  0.00  0.00    +0.309 C 
ATOM     12  O   UNL     1       3.353   0.752 -24.602  0.00  0.00    -0.251 OA
ATOM     13  C   UNL     1       4.049   1.029 -22.478  0.00  0.00    +0.136 C 
ENDBRANCH   6  11
BRANCH   1  14
ATOM     14  C   UNL     1      -1.889   3.432 -22.283  0.00  0.00    +0.038 C 
BRANCH  14  15
ATOM     15  C   UNL     1      -2.159   3.627 -21.026  0.00  0.00    +0.005 C 
BRANCH  15  16
ATOM     16  C   UNL     1      -3.356   3.394 -20.575  0.00  0.00    +0.000 C 
BRANCH  16  17
ATOM     17  C   UNL     1      -4.073   2.445 -21.098  0.00  0.00    +0.000 C 
BRANCH  17  18
ATOM     18  C   UNL     1      -5.320   2.662 -21.400  0.00  0.00    +0.000 C 
BRANCH  18  19
ATOM     19  C   UNL     1      -5.625   3.549 -22.300  0.00  0.00    +0.000 C 
BRANCH  19  20
ATOM     20  C   UNL     1      -5.149   3.443 -23.505  0.00  0.00    -0.000 C 
BRANCH  20  21
ATOM     21  C   UNL     1      -4.909   4.511 -24.205  0.00  0.00    -0.000 C 
BRANCH  21  22
ATOM     22  C   UNL     1      -4.191   4.433 -25.286  0.00  0.00    -0.000 C 
BRANCH  22  24
ATOM     23  C   UNL     1      -2.309   3.439 -26.025  0.00  0.00    +0.004 C 
ATOM     24  C   UNL     1      -3.512   3.353 -25.538  0.00  0.00    -0.003 C 
ENDBRANCH  22  24
ENDBRANCH  21  22
ENDBRANCH  20  21
ENDBRANCH  19  20
ENDBRANCH  18  19
ENDBRANCH  17  18
ENDBRANCH  16  17
ENDBRANCH  15  16
ENDBRANCH  14  15
ENDBRANCH   1  14
TORSDOF 11
ENDMDL
MODEL 2
REMARK VINA RESULT:    -8.526      1.038      2.770
REMARK INTER + INTRA:         -14.892
REMARK INTER:                 -13.543
REMARK INTRA:                  -1.349
REMARK UNBOUND:                -0.883
REMARK  Name = ZINC000008382372
REMARK  13 active torsions:
REMARK  status: ('A' for Active; 'I' for Inactive)
REMARK    1  A    between atoms: C_1  and  C_2
REMARK    2  A    between atoms: C_2  and  C_3
REMARK    3  A    between atoms: C_3  and  C_4
REMARK    4  A    between atoms: C_4  and  C_5
REMARK    5  A    between atoms: C_5  and  C_6
REMARK    6  A    between atoms: C_6  and  C_7
REMARK    7  A    between atoms: C_7  and  C_8
REMARK    8  A    between atoms: C_8  and  C_9
REMARK    9  A    between atoms: C_9  and  C_10
REMARK   10  A    between atoms: C_10  and  C_11
REMARK   11  A    between atoms: C_11  and  C_12
REMARK   12  A    between atoms: O_19  and  C_20
REMARK   13  A    between atoms: C_20  and  C_21
REMARK                            x       y       z     vdW  Elec       q    Type
REMARK                         _______ _______ _______ _____ _____    ______ ____
ROOT
ATOM      1  C   UNL     1       0.202   3.602 -23.480  0.00  0.00    -0.011 C 
ATOM      2  C   UNL     1       1.107   4.534 -23.427  0.00  0.00    +0.169 C 
ATOM      3  C   UNL     1       2.321   4.241 -23.065  0.00  0.00    -0.089 C 
ATOM      4  C   UNL     1       2.629   3.017 -22.755  0.00  0.00    +0.035 C 
ATOM      5  C   UNL     1       1.724   2.085 -22.807  0.00  0.00    +0.118 C 
ATOM      6  O   UNL     1       2.032   0.861 -22.498  0.00  0.00    -0.427 OA
ATOM      7  O   UNL     1       3.226   5.173 -23.012  0.00  0.00    -0.826 OA
ATOM      8  O   UNL     1       0.799   5.758 -23.736  0.00  0.00    -0.289 OA
ATOM      9  C   UNL     1       0.510   2.378 -23.170  0.00  0.00    -0.090 C 
ATOM     10  O   UNL     1      -0.395   1.447 -23.223  0.00  0.00    -0.826 OA
ENDROOT
BRANCH   6  11
ATOM     11  C   UNL     1       3.246   0.568 -22.136  0.00  0.00    +0.309 C 
ATOM     12  O   UNL     1       4.191   0.500 -23.025  0.00  0.00    -0.251 OA
ATOM     13  C   UNL     1       3.514   0.344 -20.883  0.00  0.00    +0.136 C 
ENDBRANCH   6  11
BRANCH   1  14
ATOM     14  C   UNL     1      -1.011   3.895 -23.842  0.00  0.00    +0.038 C 
BRANCH  14  15
ATOM     15  C   UNL     1      -1.393   3.685 -25.067  0.00  0.00    +0.005 C 
BRANCH  15  16
ATOM     16  C   UNL     1      -2.562   3.169 -25.304  0.00  0.00    +0.000 C 
BRANCH  16  17
ATOM     17  C   UNL     1      -3.551   3.935 -25.658  0.00  0.00    +0.000 C 
BRANCH  17  18
ATOM     18  C   UNL     1      -4.714   3.799 -25.092  0.00  0.00    +0.000 C 
BRANCH  18  19
ATOM     19  C   UNL     1      -4.908   4.248 -23.888  0.00  0.00    +0.000 C 
BRANCH  19  20
ATOM     20  C   UNL     1      -5.601   3.550 -23.038  0.00  0.00    -0.000 C 
BRANCH  20  21
ATOM     21  C   UNL     1      -5.078   3.210 -21.898  0.00  0.00    -0.000 C 
BRANCH  21  22
ATOM     22  C   UNL     1      -3.919   2.623 -21.863  0.00  0.00    -0.000 C 
BRANCH  22  24
ATOM     23  C   UNL     1      -3.083   4.109 -20.392  0.00  0.00    +0.004 C 
ATOM     24  C   UNL     1      -3.064   2.926 -20.931  0.00  0.00    -0.003 C 
ENDBRANCH  22  24
ENDBRANCH  21  22
ENDBRANCH  20  21
ENDBRANCH  19  20
ENDBRANCH  18  19
ENDBRANCH  17  18
ENDBRANCH  16  17
ENDBRANCH  15  16
ENDBRANCH  14  15
ENDBRANCH   1  14
TORSDOF 11
ENDMDL
MODEL 3
REMARK VINA RESULT:    -8.378      1.936      3.836
REMARK INTER + INTRA:         -14.649
REMARK INTER:                 -13.505
REMARK INTRA:                  -1.144
REMARK UNBOUND:                -0.883
REMARK  Name = ZINC000008382372
REMARK  13 active torsions:
REMARK  status: ('A' for Active; 'I' for Inactive)
REMARK    1  A    between atoms: C_1  and  C_2
REMARK    2  A    between atoms: C_2  and  C_3
REMARK    3  A    between atoms: C_3  and  C_4
REMARK    4  A    between atoms: C_4  and  C_5
REMARK    5  A    between atoms: C_5  and  C_6
REMARK    6  A    between atoms: C_6  and  C_7
REMARK    7  A    between atoms: C_7  and  C_8
REMARK    8  A    between atoms: C_8  and  C_9
REMARK    9  A    between atoms: C_9  and  C_10
REMARK   10  A    between atoms: C_10  and  C_11
REMARK   11  A    between atoms: C_11  and  C_12
REMARK   12  A    between atoms: O_19  and  C_20
REMARK   13  A    between atoms: C_20  and  C_21
REMARK                            x       y       z     vdW  Elec       q    Type
REMARK                         _______ _______ _______ _____ _____    ______ ____
ROOT
ATOM      1  C   UNL     1       1.671   3.703 -23.373  0.00  0.00    -0.011 C 
ATOM      2  C   UNL     1       1.547   2.410 -23.317  0.00  0.00    +0.169 C 
ATOM      3  C   UNL     1       2.541   1.678 -22.911  0.00  0.00    -0.089 C 
ATOM      4  C   UNL     1       3.661   2.239 -22.561  0.00  0.00    +0.035 C 
ATOM      5  C   UNL     1       3.786   3.532 -22.617  0.00  0.00    +0.118 C 
ATOM      6  O   UNL     1       4.905   4.093 -22.268  0.00  0.00    -0.427 OA
ATOM      7  O   UNL     1       2.417   0.385 -22.855  0.00  0.00    -0.826 OA
ATOM      8  O   UNL     1       0.428   1.849 -23.667  0.00  0.00    -0.289 OA
ATOM      9  C   UNL     1       2.790   4.264 -23.024  0.00  0.00    -0.090 C 
ATOM     10  O   UNL     1       2.915   5.557 -23.080  0.00  0.00    -0.826 OA
ENDROOT
BRANCH   6  11
ATOM     11  C   UNL     1       5.899   3.362 -21.862  0.00  0.00    +0.309 C 
ATOM     12  O   UNL     1       5.992   3.029 -20.608  0.00  0.00    -0.251 OA
ATOM     13  C   UNL     1       6.802   2.963 -22.709  0.00  0.00    +0.136 C 
ENDBRANCH   6  11
BRANCH   1  14
ATOM     14  C   UNL     1       0.677   4.434 -23.780  0.00  0.00    +0.038 C 
BRANCH  14  15
ATOM     15  C   UNL     1      -0.215   4.850 -22.929  0.00  0.00    +0.005 C 
BRANCH  15  16
ATOM     16  C   UNL     1      -1.450   5.003 -23.304  0.00  0.00    +0.000 C 
BRANCH  16  17
ATOM     17  C   UNL     1      -1.907   4.332 -24.320  0.00  0.00    +0.000 C 
BRANCH  17  18
ATOM     18  C   UNL     1      -3.175   4.371 -24.607  0.00  0.00    +0.000 C 
BRANCH  18  19
ATOM     19  C   UNL     1      -3.967   3.433 -24.180  0.00  0.00    +0.000 C 
BRANCH  19  20
ATOM     20  C   UNL     1      -5.034   3.741 -23.506  0.00  0.00    -0.000 C 
BRANCH  20  21
ATOM     21  C   UNL     1      -5.030   3.654 -22.209  0.00  0.00    -0.000 C 
BRANCH  21  22
ATOM     22  C   UNL     1      -4.451   2.645 -21.626  0.00  0.00    -0.000 C 
BRANCH  22  24
ATOM     23  C   UNL     1      -3.059   3.827 -20.308  0.00  0.00    +0.004 C 
ATOM     24  C   UNL     1      -3.851   2.811 -20.485  0.00  0.00    -0.003 C 
ENDBRANCH  22  24
ENDBRANCH  21  22
ENDBRANCH  20  21
ENDBRANCH  19  20
ENDBRANCH  18  19
ENDBRANCH  17  18
ENDBRANCH  16  17
ENDBRANCH  15  16
ENDBRANCH  14  15
ENDBRANCH   1  14
TORSDOF 11
ENDMDL
MODEL 4
REMARK VINA RESULT:    -8.095      1.543      1.963
REMARK INTER + INTRA:         -14.183
REMARK INTER:                 -12.940
REMARK INTRA:                  -1.243
REMARK UNBOUND:                -0.883
REMARK  Name = ZINC000008382372
REMARK  13 active torsions:
REMARK  status: ('A' for Active; 'I' for Inactive)
REMARK    1  A    between atoms: C_1  and  C_2
REMARK    2  A    between atoms: C_2  and  C_3
REMARK    3  A    between atoms: C_3  and  C_4
REMARK    4  A    between atoms: C_4  and  C_5
REMARK    5  A    between atoms: C_5  and  C_6
REMARK    6  A    between atoms: C_6  and  C_7
REMARK    7  A    between atoms: C_7  and  C_8
REMARK    8  A    between atoms: C_8  and  C_9
REMARK    9  A    between atoms: C_9  and  C_10
REMARK   10  A    between atoms: C_10  and  C_11
REMARK   11  A    between atoms: C_11  and  C_12
REMARK   12  A    between atoms: O_19  and  C_20
REMARK   13  A    between atoms: C_20  and  C_21
REMARK                            x       y       z     vdW  Elec       q    Type
REMARK                         _______ _______ _______ _____ _____    ______ ____
ROOT
ATOM      1  C   UNL     1       0.718   2.812 -22.928  0.00  0.00    -0.011 C 
ATOM      2  C   UNL     1       0.755   4.065 -23.269  0.00  0.00    +0.169 C 
ATOM      3  C   UNL     1       1.889   4.700 -23.291  0.00  0.00    -0.089 C 
ATOM      4  C   UNL     1       2.987   4.081 -22.970  0.00  0.00    +0.035 C 
ATOM      5  C   UNL     1       2.950   2.828 -22.628  0.00  0.00    +0.118 C 
ATOM      6  O   UNL     1       4.047   2.209 -22.308  0.00  0.00    -0.427 OA
ATOM      7  O   UNL     1       1.925   5.954 -23.632  0.00  0.00    -0.826 OA
ATOM      8  O   UNL     1      -0.342   4.684 -23.590  0.00  0.00    -0.289 OA
ATOM      9  C   UNL     1       1.815   2.193 -22.607  0.00  0.00    -0.090 C 
ATOM     10  O   UNL     1       1.778   0.939 -22.265  0.00  0.00    -0.826 OA
ENDROOT
BRANCH   6  11
ATOM     11  C   UNL     1       5.181   2.843 -22.329  0.00  0.00    +0.309 C 
ATOM     12  O   UNL     1       5.679   3.321 -21.227  0.00  0.00    -0.251 OA
ATOM     13  C   UNL     1       5.817   3.001 -23.452  0.00  0.00    +0.136 C 
ENDBRANCH   6  11
BRANCH   1  14
ATOM     14  C   UNL     1      -0.416   2.177 -22.906  0.00  0.00    +0.038 C 
BRANCH  14  15
ATOM     15  C   UNL     1      -1.042   2.002 -21.780  0.00  0.00    +0.005 C 
BRANCH  15  16
ATOM     16  C   UNL     1      -2.305   2.300 -21.686  0.00  0.00    +0.000 C 
BRANCH  16  17
ATOM     17  C   UNL     1      -2.675   3.354 -21.022  0.00  0.00    +0.000 C 
BRANCH  17  18
ATOM     18  C   UNL     1      -3.926   3.710 -21.012  0.00  0.00    +0.000 C 
BRANCH  18  19
ATOM     19  C   UNL     1      -4.804   3.019 -21.677  0.00  0.00    +0.000 C 
BRANCH  19  20
ATOM     20  C   UNL     1      -5.520   3.593 -22.597  0.00  0.00    -0.000 C 
BRANCH  20  21
ATOM     21  C   UNL     1      -5.162   3.512 -23.844  0.00  0.00    -0.000 C 
BRANCH  21  22
ATOM     22  C   UNL     1      -4.669   4.553 -24.447  0.00  0.00    -0.000 C 
BRANCH  22  24
ATOM     23  C   UNL     1      -3.034   3.274 -25.321  0.00  0.00    +0.004 C 
ATOM     24  C   UNL     1      -3.622   4.429 -25.207  0.00  0.00    -0.003 C 
ENDBRANCH  22  24
ENDBRANCH  21  22
ENDBRANCH  20  21
ENDBRANCH  19  20
ENDBRANCH  18  19
ENDBRANCH  17  18
ENDBRANCH  16  17
ENDBRANCH  15  16
ENDBRANCH  14  15
ENDBRANCH   1  14
TORSDOF 11
ENDMDL
MODEL 5
REMARK VINA RESULT:    -7.937      1.569      2.776
REMARK INTER + INTRA:         -13.923
REMARK INTER:                 -12.832
REMARK INTRA:                  -1.091
REMARK UNBOUND:                -0.883
REMARK  Name = ZINC000008382372
REMARK  13 active torsions:
REMARK  status: ('A' for Active; 'I' for Inactive)
REMARK    1  A    between atoms: C_1  and  C_2
REMARK    2  A    between atoms: C_2  and  C_3
REMARK    3  A    between atoms: C_3  and  C_4
REMARK    4  A    between atoms: C_4  and  C_5
REMARK    5  A    between atoms: C_5  and  C_6
REMARK    6  A    between atoms: C_6  and  C_7
REMARK    7  A    between atoms: C_7  and  C_8
REMARK    8  A    between atoms: C_8  and  C_9
REMARK    9  A    between atoms: C_9  and  C_10
REMARK   10  A    between atoms: C_10  and  C_11
REMARK   11  A    between atoms: C_11  and  C_12
REMARK   12  A    between atoms: O_19  and  C_20
REMARK   13  A    between atoms: C_20  and  C_21
REMARK                            x       y       z     vdW  Elec       q    Type
REMARK                         _______ _______ _______ _____ _____    ______ ____
ROOT
ATOM      1  C   UNL     1       0.609   2.983 -23.002  0.00  0.00    -0.011 C 
ATOM      2  C   UNL     1       0.966   1.868 -22.435  0.00  0.00    +0.169 C 
ATOM      3  C   UNL     1       2.225   1.611 -22.243  0.00  0.00    -0.089 C 
ATOM      4  C   UNL     1       3.129   2.468 -22.618  0.00  0.00    +0.035 C 
ATOM      5  C   UNL     1       2.772   3.583 -23.184  0.00  0.00    +0.118 C 
ATOM      6  O   UNL     1       3.675   4.440 -23.558  0.00  0.00    -0.427 OA
ATOM      7  O   UNL     1       2.582   0.496 -21.677  0.00  0.00    -0.826 OA
ATOM      8  O   UNL     1       0.063   1.011 -22.061  0.00  0.00    -0.289 OA
ATOM      9  C   UNL     1       1.512   3.840 -23.376  0.00  0.00    -0.090 C 
ATOM     10  O   UNL     1       1.156   4.955 -23.942  0.00  0.00    -0.826 OA
ENDROOT
BRANCH   6  11
ATOM     11  C   UNL     1       4.934   4.182 -23.366  0.00  0.00    +0.309 C 
ATOM     12  O   UNL     1       5.505   3.208 -24.011  0.00  0.00    -0.251 OA
ATOM     13  C   UNL     1       5.625   4.899 -22.528  0.00  0.00    +0.136 C 
ENDBRANCH   6  11
BRANCH   1  14
ATOM     14  C   UNL     1      -0.650   3.240 -23.194  0.00  0.00    +0.038 C 
BRANCH  14  15
ATOM     15  C   UNL     1      -1.229   4.191 -22.521  0.00  0.00    +0.005 C 
BRANCH  15  16
ATOM     16  C   UNL     1      -1.995   3.898 -21.511  0.00  0.00    +0.000 C 
BRANCH  16  17
ATOM     17  C   UNL     1      -2.693   2.802 -21.523  0.00  0.00    +0.000 C 
BRANCH  17  18
ATOM     18  C   UNL     1      -3.879   2.780 -20.991  0.00  0.00    +0.000 C 
BRANCH  18  19
ATOM     19  C   UNL     1      -4.927   2.630 -21.745  0.00  0.00    +0.000 C 
BRANCH  19  20
ATOM     20  C   UNL     1      -5.420   3.649 -22.383  0.00  0.00    -0.000 C 
BRANCH  20  21
ATOM     21  C   UNL     1      -5.417   3.666 -23.683  0.00  0.00    -0.000 C 
BRANCH  21  22
ATOM     22  C   UNL     1      -4.586   4.436 -24.321  0.00  0.00    -0.000 C 
BRANCH  22  24
ATOM     23  C   UNL     1      -3.344   3.074 -25.616  0.00  0.00    +0.004 C 
ATOM     24  C   UNL     1      -4.149   4.089 -25.495  0.00  0.00    -0.003 C 
ENDBRANCH  22  24
ENDBRANCH  21  22
ENDBRANCH  20  21
ENDBRANCH  19  20
ENDBRANCH  18  19
ENDBRANCH  17  18
ENDBRANCH  16  17
ENDBRANCH  15  16
ENDBRANCH  14  15
ENDBRANCH   1  14
TORSDOF 11
ENDMDL
MODEL 6
REMARK VINA RESULT:    -7.540      2.096      3.929
REMARK INTER + INTRA:         -13.272
REMARK INTER:                 -12.582
REMARK INTRA:                  -0.690
REMARK UNBOUND:                -0.883
REMARK  Name = ZINC000008382372
REMARK  13 active torsions:
REMARK  status: ('A' for Active; 'I' for Inactive)
REMARK    1  A    between atoms: C_1  and  C_2
REMARK    2  A    between atoms: C_2  and  C_3
REMARK    3  A    between atoms: C_3  and  C_4
REMARK    4  A    between atoms: C_4  and  C_5
REMARK    5  A    between atoms: C_5  and  C_6
REMARK    6  A    between atoms: C_6  and  C_7
REMARK    7  A    between atoms: C_7  and  C_8
REMARK    8  A    between atoms: C_8  and  C_9
REMARK    9  A    between atoms: C_9  and  C_10
REMARK   10  A    between atoms: C_10  and  C_11
REMARK   11  A    between atoms: C_11  and  C_12
REMARK   12  A    between atoms: O_19  and  C_20
REMARK   13  A    between atoms: C_20  and  C_21
REMARK                            x       y       z     vdW  Elec       q    Type
REMARK                         _______ _______ _______ _____ _____    ______ ____
ROOT
ATOM      1  C   UNL     1       2.252   3.918 -23.993  0.00  0.00    -0.011 C 
ATOM      2  C   UNL     1       2.376   2.678 -24.361  0.00  0.00    +0.169 C 
ATOM      3  C   UNL     1       3.408   1.987 -23.979  0.00  0.00    -0.089 C 
ATOM      4  C   UNL     1       4.317   2.536 -23.229  0.00  0.00    +0.035 C 
ATOM      5  C   UNL     1       4.193   3.777 -22.861  0.00  0.00    +0.118 C 
ATOM      6  O   UNL     1       5.101   4.326 -22.110  0.00  0.00    -0.427 OA
ATOM      7  O   UNL     1       3.532   0.746 -24.347  0.00  0.00    -0.826 OA
ATOM      8  O   UNL     1       1.468   2.128 -25.112  0.00  0.00    -0.289 OA
ATOM      9  C   UNL     1       3.160   4.468 -23.243  0.00  0.00    -0.090 C 
ATOM     10  O   UNL     1       3.036   5.708 -22.875  0.00  0.00    -0.826 OA
ENDROOT
BRANCH   6  11
ATOM     11  C   UNL     1       6.133   3.635 -21.728  0.00  0.00    +0.309 C 
ATOM     12  O   UNL     1       6.116   3.020 -20.583  0.00  0.00    -0.251 OA
ATOM     13  C   UNL     1       7.184   3.559 -22.492  0.00  0.00    +0.136 C 
ENDBRANCH   6  11
BRANCH   1  14
ATOM     14  C   UNL     1       1.220   4.609 -24.375  0.00  0.00    +0.038 C 
BRANCH  14  15
ATOM     15  C   UNL     1       0.161   4.668 -23.622  0.00  0.00    +0.005 C 
BRANCH  15  16
ATOM     16  C   UNL     1      -0.989   4.275 -24.086  0.00  0.00    +0.000 C 
BRANCH  16  17
ATOM     17  C   UNL     1      -1.663   3.359 -23.457  0.00  0.00    +0.000 C 
BRANCH  17  18
ATOM     18  C   UNL     1      -1.253   2.928 -22.300  0.00  0.00    +0.000 C 
BRANCH  18  19
ATOM     19  C   UNL     1      -2.108   2.731 -21.341  0.00  0.00    +0.000 C 
BRANCH  19  20
ATOM     20  C   UNL     1      -3.248   3.355 -21.347  0.00  0.00    -0.000 C 
BRANCH  20  21
ATOM     21  C   UNL     1      -4.334   2.721 -21.674  0.00  0.00    -0.000 C 
BRANCH  21  22
ATOM     22  C   UNL     1      -5.303   3.354 -22.267  0.00  0.00    -0.000 C 
BRANCH  22  24
ATOM     23  C   UNL     1      -5.164   3.602 -24.501  0.00  0.00    +0.004 C 
ATOM     24  C   UNL     1      -5.055   4.098 -23.304  0.00  0.00    -0.003 C 
ENDBRANCH  22  24
ENDBRANCH  21  22
ENDBRANCH  20  21
ENDBRANCH  19  20
ENDBRANCH  18  19
ENDBRANCH  17  18
ENDBRANCH  16  17
ENDBRANCH  15  16
ENDBRANCH  14  15
ENDBRANCH   1  14
TORSDOF 11
ENDMDL
MODEL 7
REMARK VINA RESULT:    -6.879      2.071      7.318
REMARK INTER + INTRA:         -12.185
REMARK INTER:                 -11.201
REMARK INTRA:                  -0.984
REMARK UNBOUND:                -0.883
REMARK  Name = ZINC000008382372
REMARK  13 active torsions:
REMARK  status: ('A' for Active; 'I' for Inactive)
REMARK    1  A    between atoms: C_1  and  C_2
REMARK    2  A    between atoms: C_2  and  C_3
REMARK    3  A    between atoms: C_3  and  C_4
REMARK    4  A    between atoms: C_4  and  C_5
REMARK    5  A    between atoms: C_5  and  C_6
REMARK    6  A    between atoms: C_6  and  C_7
REMARK    7  A    between atoms: C_7  and  C_8
REMARK    8  A    between atoms: C_8  and  C_9
REMARK    9  A    between atoms: C_9  and  C_10
REMARK   10  A    between atoms: C_10  and  C_11
REMARK   11  A    between atoms: C_11  and  C_12
REMARK   12  A    between atoms: O_19  and  C_20
REMARK   13  A    between atoms: C_20  and  C_21
REMARK                            x       y       z     vdW  Elec       q    Type
REMARK                         _______ _______ _______ _____ _____    ______ ____
ROOT
ATOM      1  C   UNL     1      -0.322   2.916 -23.380  0.00  0.00    -0.011 C 
ATOM      2  C   UNL     1      -1.008   2.555 -22.337  0.00  0.00    +0.169 C 
ATOM      3  C   UNL     1      -2.304   2.656 -22.345  0.00  0.00    -0.089 C 
ATOM      4  C   UNL     1      -2.914   3.117 -23.397  0.00  0.00    +0.035 C 
ATOM      5  C   UNL     1      -2.227   3.478 -24.440  0.00  0.00    +0.118 C 
ATOM      6  O   UNL     1      -2.836   3.939 -25.492  0.00  0.00    -0.427 OA
ATOM      7  O   UNL     1      -2.991   2.295 -21.302  0.00  0.00    -0.826 OA
ATOM      8  O   UNL     1      -0.399   2.094 -21.285  0.00  0.00    -0.289 OA
ATOM      9  C   UNL     1      -0.931   3.377 -24.432  0.00  0.00    -0.090 C 
ATOM     10  O   UNL     1      -0.244   3.738 -25.475  0.00  0.00    -0.826 OA
ENDROOT
BRANCH   6  11
ATOM     11  C   UNL     1      -4.132   4.040 -25.500  0.00  0.00    +0.309 C 
ATOM     12  O   UNL     1      -4.705   5.101 -25.015  0.00  0.00    -0.251 OA
ATOM     13  C   UNL     1      -4.856   3.079 -25.994  0.00  0.00    +0.136 C 
ENDBRANCH   6  11
BRANCH   1  14
ATOM     14  C   UNL     1       0.974   2.816 -23.372  0.00  0.00    +0.038 C 
BRANCH  14  15
ATOM     15  C   UNL     1       1.707   3.872 -23.173  0.00  0.00    +0.005 C 
BRANCH  15  16
ATOM     16  C   UNL     1       2.865   3.977 -23.755  0.00  0.00    +0.000 C 
BRANCH  16  17
ATOM     17  C   UNL     1       3.922   4.256 -23.052  0.00  0.00    +0.000 C 
BRANCH  17  18
ATOM     18  C   UNL     1       5.093   3.857 -23.452  0.00  0.00    +0.000 C 
BRANCH  18  19
ATOM     19  C   UNL     1       5.708   2.905 -22.814  0.00  0.00    +0.000 C 
BRANCH  19  20
ATOM     20  C   UNL     1       5.637   2.841 -21.518  0.00  0.00    -0.000 C 
BRANCH  20  21
ATOM     21  C   UNL     1       5.272   1.734 -20.942  0.00  0.00    -0.000 C 
BRANCH  21  22
ATOM     22  C   UNL     1       4.752   0.774 -21.648  0.00  0.00    -0.000 C 
BRANCH  22  24
ATOM     23  C   UNL     1       2.779   0.240 -22.595  0.00  0.00    +0.004 C 
ATOM     24  C   UNL     1       3.488   0.494 -21.534  0.00  0.00    -0.003 C 
ENDBRANCH  22  24
ENDBRANCH  21  22
ENDBRANCH  20  21
ENDBRANCH  19  20
ENDBRANCH  18  19
ENDBRANCH  17  18
ENDBRANCH  16  17
ENDBRANCH  15  16
ENDBRANCH  14  15
ENDBRANCH   1  14
TORSDOF 11
ENDMDL
MODEL 8
REMARK VINA RESULT:    -6.867      2.109      7.133
REMARK INTER + INTRA:         -12.166
REMARK INTER:                 -11.084
REMARK INTRA:                  -1.082
REMARK UNBOUND:                -0.883
REMARK  Name = ZINC000008382372
REMARK  13 active torsions:
REMARK  status: ('A' for Active; 'I' for Inactive)
REMARK    1  A    between atoms: C_1  and  C_2
REMARK    2  A    between atoms: C_2  and  C_3
REMARK    3  A    between atoms: C_3  and  C_4
REMARK    4  A    between atoms: C_4  and  C_5
REMARK    5  A    between atoms: C_5  and  C_6
REMARK    6  A    between atoms: C_6  and  C_7
REMARK    7  A    between atoms: C_7  and  C_8
REMARK    8  A    between atoms: C_8  and  C_9
REMARK    9  A    between atoms: C_9  and  C_10
REMARK   10  A    between atoms: C_10  and  C_11
REMARK   11  A    between atoms: C_11  and  C_12
REMARK   12  A    between atoms: O_19  and  C_20
REMARK   13  A    between atoms: C_20  and  C_21
REMARK                            x       y       z     vdW  Elec       q    Type
REMARK                         _______ _______ _______ _____ _____    ______ ____
ROOT
ATOM      1  C   UNL     1       0.018   2.702 -23.162  0.00  0.00    -0.011 C 
ATOM      2  C   UNL     1      -0.783   2.376 -22.192  0.00  0.00    +0.169 C 
ATOM      3  C   UNL     1      -2.066   2.532 -22.328  0.00  0.00    -0.089 C 
ATOM      4  C   UNL     1      -2.549   3.014 -23.436  0.00  0.00    +0.035 C 
ATOM      5  C   UNL     1      -1.748   3.341 -24.406  0.00  0.00    +0.118 C 
ATOM      6  O   UNL     1      -2.230   3.823 -25.513  0.00  0.00    -0.427 OA
ATOM      7  O   UNL     1      -2.868   2.205 -21.358  0.00  0.00    -0.826 OA
ATOM      8  O   UNL     1      -0.301   1.894 -21.085  0.00  0.00    -0.289 OA
ATOM      9  C   UNL     1      -0.464   3.185 -24.269  0.00  0.00    -0.090 C 
ATOM     10  O   UNL     1       0.337   3.511 -25.239  0.00  0.00    -0.826 OA
ENDROOT
BRANCH   6  11
ATOM     11  C   UNL     1      -3.513   3.979 -25.649  0.00  0.00    +0.309 C 
ATOM     12  O   UNL     1      -4.083   5.070 -25.233  0.00  0.00    -0.251 OA
ATOM     13  C   UNL     1      -4.227   3.042 -26.202  0.00  0.00    +0.136 C 
ENDBRANCH   6  11
BRANCH   1  14
ATOM     14  C   UNL     1       1.301   2.547 -23.026  0.00  0.00    +0.038 C 
BRANCH  14  15
ATOM     15  C   UNL     1       1.908   1.577 -23.645  0.00  0.00    +0.005 C 
BRANCH  15  16
ATOM     16  C   UNL     1       2.907   0.969 -23.077  0.00  0.00    +0.000 C 
BRANCH  16  17
ATOM     17  C   UNL     1       2.819   0.597 -21.835  0.00  0.00    +0.000 C 
BRANCH  17  18
ATOM     18  C   UNL     1       3.899   0.425 -21.129  0.00  0.00    +0.000 C 
BRANCH  18  19
ATOM     19  C   UNL     1       5.011   0.990 -21.495  0.00  0.00    +0.000 C 
BRANCH  19  20
ATOM     20  C   UNL     1       5.330   2.160 -21.027  0.00  0.00    -0.000 C 
BRANCH  20  21
ATOM     21  C   UNL     1       6.067   2.963 -21.735  0.00  0.00    -0.000 C 
BRANCH  21  22
ATOM     22  C   UNL     1       5.739   3.235 -22.963  0.00  0.00    -0.000 C 
BRANCH  22  24
ATOM     23  C   UNL     1       4.137   4.816 -23.038  0.00  0.00    +0.004 C 
ATOM     24  C   UNL     1       5.356   4.435 -23.283  0.00  0.00    -0.003 C 
ENDBRANCH  22  24
ENDBRANCH  21  22
ENDBRANCH  20  21
ENDBRANCH  19  20
ENDBRANCH  18  19
ENDBRANCH  17  18
ENDBRANCH  16  17
ENDBRANCH  15  16
ENDBRANCH  14  15
ENDBRANCH   1  14
TORSDOF 11
ENDMDL
MODEL 9
REMARK VINA RESULT:    -6.300      2.721      7.538
REMARK INTER + INTRA:         -11.233
REMARK INTER:                 -10.351
REMARK INTRA:                  -0.883
REMARK UNBOUND:                -0.883
REMARK  Name = ZINC000008382372
REMARK  13 active torsions:
REMARK  status: ('A' for Active; 'I' for Inactive)
REMARK    1  A    between atoms: C_1  and  C_2
REMARK    2  A    between atoms: C_2  and  C_3
REMARK    3  A    between atoms: C_3  and  C_4
REMARK    4  A    between atoms: C_4  and  C_5
REMARK    5  A    between atoms: C_5  and  C_6
REMARK    6  A    between atoms: C_6  and  C_7
REMARK    7  A    between atoms: C_7  and  C_8
REMARK    8  A    between atoms: C_8  and  C_9
REMARK    9  A    between atoms: C_9  and  C_10
REMARK   10  A    between atoms: C_10  and  C_11
REMARK   11  A    between atoms: C_11  and  C_12
REMARK   12  A    between atoms: O_19  and  C_20
REMARK   13  A    between atoms: C_20  and  C_21
REMARK                            x       y       z     vdW  Elec       q    Type
REMARK                         _______ _______ _______ _____ _____    ______ ____
ROOT
ATOM      1  C   UNL     1       0.644   2.337 -22.447  0.00  0.00    -0.011 C 
ATOM      2  C   UNL     1       0.748   3.501 -23.016  0.00  0.00    +0.169 C 
ATOM      3  C   UNL     1      -0.272   4.306 -23.038  0.00  0.00    -0.089 C 
ATOM      4  C   UNL     1      -1.396   3.948 -22.491  0.00  0.00    +0.035 C 
ATOM      5  C   UNL     1      -1.500   2.784 -21.921  0.00  0.00    +0.118 C 
ATOM      6  O   UNL     1      -2.623   2.426 -21.374  0.00  0.00    -0.427 OA
ATOM      7  O   UNL     1      -0.168   5.470 -23.608  0.00  0.00    -0.826 OA
ATOM      8  O   UNL     1       1.871   3.859 -23.564  0.00  0.00    -0.289 OA
ATOM      9  C   UNL     1      -0.479   1.978 -21.899  0.00  0.00    -0.090 C 
ATOM     10  O   UNL     1      -0.583   0.814 -21.330  0.00  0.00    -0.826 OA
ENDROOT
BRANCH   6  11
ATOM     11  C   UNL     1      -3.642   3.232 -21.396  0.00  0.00    +0.309 C 
ATOM     12  O   UNL     1      -3.732   4.191 -20.523  0.00  0.00    -0.251 OA
ATOM     13  C   UNL     1      -4.573   3.079 -22.292  0.00  0.00    +0.136 C 
ENDBRANCH   6  11
BRANCH   1  14
ATOM     14  C   UNL     1       1.663   1.531 -22.425  0.00  0.00    +0.038 C 
BRANCH  14  15
ATOM     15  C   UNL     1       2.418   1.465 -21.367  0.00  0.00    +0.005 C 
BRANCH  15  16
ATOM     16  C   UNL     1       3.619   0.976 -21.455  0.00  0.00    +0.000 C 
BRANCH  16  17
ATOM     17  C   UNL     1       4.645   1.773 -21.464  0.00  0.00    +0.000 C 
BRANCH  17  18
ATOM     18  C   UNL     1       5.365   1.896 -22.540  0.00  0.00    +0.000 C 
BRANCH  18  19
ATOM     19  C   UNL     1       5.310   2.991 -23.237  0.00  0.00    +0.000 C 
BRANCH  19  20
ATOM     20  C   UNL     1       5.388   4.144 -22.642  0.00  0.00    -0.000 C 
BRANCH  20  21
ATOM     21  C   UNL     1       6.442   4.888 -22.804  0.00  0.00    -0.000 C 
BRANCH  21  22
ATOM     22  C   UNL     1       7.421   4.823 -21.950  0.00  0.00    -0.000 C 
BRANCH  22  24
ATOM     23  C   UNL     1       7.830   5.541 -19.855  0.00  0.00    +0.004 C 
ATOM     24  C   UNL     1       7.171   4.778 -20.676  0.00  0.00    -0.003 C 
ENDBRANCH  22  24
ENDBRANCH  21  22
ENDBRANCH  20  21
ENDBRANCH  19  20
ENDBRANCH  18  19
ENDBRANCH  17  18
ENDBRANCH  16  17
ENDBRANCH  15  16
ENDBRANCH  14  15
ENDBRANCH   1  14
TORSDOF 11
ENDMDL
