MODEL 1
REMARK VINA RESULT:   -11.286      0.000      0.000
REMARK INTER + INTRA:         -12.042
REMARK INTER:                 -11.892
REMARK INTRA:                  -0.150
REMARK UNBOUND:                -0.096
REMARK  Name = COc1ccc2c3c1O[C@@]1(C)C(=O)C=C[C@@H]4[C@@H](C2)N(C)CC[C@]341         ZINC000100393555
REMARK  4 active torsions:
REMARK  status: ('A' for Active; 'I' for Inactive)
REMARK    1  A    between atoms: C_1  and  O_2
REMARK    2  A    between atoms: O_2  and  C_3
REMARK    3  A    between atoms: C_10  and  C_11
REMARK    4  A    between atoms: N_19  and  C_20
REMARK                            x       y       z     vdW  Elec       q    Type
REMARK                         _______ _______ _______ _____ _____    ______ ____
ROOT
ATOM      1  C   UNL     1       0.764   2.241 -23.223  0.00  0.00    +0.162 A 
ATOM      2  C   UNL     1       0.721   1.907 -22.004  0.00  0.00    +0.050 A 
ATOM      3  C   UNL     1      -0.358   1.949 -21.370  0.00  0.00    +0.008 A 
ATOM      4  C   UNL     1      -1.406   2.326 -21.947  0.00  0.00    -0.034 A 
ATOM      5  C   UNL     1      -1.384   2.663 -23.161  0.00  0.00    +0.013 A 
ATOM      6  C   UNL     1      -2.430   3.039 -23.733  0.00  0.00    +0.062 C 
ATOM      7  C   UNL     1      -3.555   3.482 -24.488  0.00  0.00    +0.067 C 
ATOM      8  C   UNL     1      -4.786   3.540 -23.800  0.00  0.00    +0.132 C 
ATOM      9  N   UNL     1      -4.794   3.159 -22.443  0.00  0.00    +0.236 N 
ATOM     10  H   UNL     1      -5.655   3.181 -21.896  0.00  0.00    +0.203 HD
ATOM     11  C   UNL     1      -5.843   3.182 -21.761  0.00  0.00    +0.190 C 
ATOM     12  C   UNL     1      -3.549   2.747 -21.882  0.00  0.00    +0.076 C 
ATOM     13  C   UNL     1      -3.511   3.082 -23.102  0.00  0.00    +0.076 C 
ATOM     14  C   UNL     1      -4.567   3.462 -23.682  0.00  0.00    -0.013 C 
ATOM     15  C   UNL     1      -4.536   3.796 -24.889  0.00  0.00    +0.046 C 
ATOM     16  C   UNL     1      -3.449   3.755 -25.533  0.00  0.00    +0.200 C 
ATOM     17  O   UNL     1      -3.420   4.089 -26.739  0.00  0.00    -0.288 OA
ATOM     18  C   UNL     1      -2.401   3.379 -24.961  0.00  0.00    +0.180 C 
ATOM     19  C   UNL     1      -2.084   3.647 -26.142  0.00  0.00    +0.065 C 
ATOM     20  O   UNL     1      -0.921   3.109 -25.078  0.00  0.00    -0.473 OA
ATOM     21  C   UNL     1      -2.505   2.370 -21.306  0.00  0.00    +0.090 C 
ATOM     22  C   UNL     1      -0.297   2.622 -23.803  0.00  0.00    +0.167 A 
ENDROOT
BRANCH   1  24
ATOM     23  C   UNL     1       2.578   3.209 -23.912  0.00  0.00    +0.277 C 
ATOM     24  O   UNL     1       1.844   2.197 -23.852  0.00  0.00    -0.491 OA
ENDBRANCH   1  24
TORSDOF 1
ENDMDL
MODEL 2
REMARK VINA RESULT:   -10.640      1.966      4.909
REMARK INTER + INTRA:         -11.358
REMARK INTER:                 -11.246
REMARK INTRA:                  -0.113
REMARK UNBOUND:                -0.096
REMARK  Name = COc1ccc2c3c1O[C@@]1(C)C(=O)C=C[C@@H]4[C@@H](C2)N(C)CC[C@]341         ZINC000100393555
REMARK  4 active torsions:
REMARK  status: ('A' for Active; 'I' for Inactive)
REMARK    1  A    between atoms: C_1  and  O_2
REMARK    2  A    between atoms: O_2  and  C_3
REMARK    3  A    between atoms: C_10  and  C_11
REMARK    4  A    between atoms: N_19  and  C_20
REMARK                            x       y       z     vdW  Elec       q    Type
REMARK                         _______ _______ _______ _____ _____    ______ ____
ROOT
ATOM      1  C   UNL     1      -3.426   3.240 -23.093  0.00  0.00    +0.162 A 
ATOM      2  C   UNL     1      -3.660   2.706 -21.971  0.00  0.00    +0.050 A 
ATOM      3  C   UNL     1      -2.738   2.164 -21.320  0.00  0.00    +0.008 A 
ATOM      4  C   UNL     1      -1.572   2.149 -21.783  0.00  0.00    -0.034 A 
ATOM      5  C   UNL     1      -1.319   2.676 -22.899  0.00  0.00    +0.013 A 
ATOM      6  C   UNL     1      -0.156   2.660 -23.358  0.00  0.00    +0.062 C 
ATOM      7  C   UNL     1       1.125   2.703 -23.980  0.00  0.00    +0.067 C 
ATOM      8  C   UNL     1       2.185   2.100 -23.269  0.00  0.00    +0.132 C 
ATOM      9  N   UNL     1       1.885   1.515 -22.022  0.00  0.00    +0.236 N 
ATOM     10  H   UNL     1       2.612   1.064 -21.465  0.00  0.00    +0.203 HD
ATOM     11  C   UNL     1       2.767   0.959 -21.329  0.00  0.00    +0.190 C 
ATOM     12  C   UNL     1       0.529   1.585 -21.587  0.00  0.00    +0.076 C 
ATOM     13  C   UNL     1       0.768   2.119 -22.710  0.00  0.00    +0.076 C 
ATOM     14  C   UNL     1       1.942   2.104 -23.175  0.00  0.00    -0.013 C 
ATOM     15  C   UNL     1       2.185   2.630 -24.286  0.00  0.00    +0.046 C 
ATOM     16  C   UNL     1       1.257   3.178 -24.946  0.00  0.00    +0.200 C 
ATOM     17  O   UNL     1       1.502   3.704 -26.056  0.00  0.00    -0.288 OA
ATOM     18  C   UNL     1       0.093   3.194 -24.487  0.00  0.00    +0.180 C 
ATOM     19  C   UNL     1       0.048   3.781 -25.593  0.00  0.00    +0.065 C 
ATOM     20  O   UNL     1      -1.342   3.615 -24.690  0.00  0.00    -0.473 OA
ATOM     21  C   UNL     1      -0.632   1.599 -21.124  0.00  0.00    +0.090 C 
ATOM     22  C   UNL     1      -2.247   3.224 -23.558  0.00  0.00    +0.167 A 
ENDROOT
BRANCH   1  24
ATOM     23  C   UNL     1      -5.527   3.728 -23.317  0.00  0.00    +0.277 C 
ATOM     24  O   UNL     1      -4.351   3.780 -23.740  0.00  0.00    -0.491 OA
ENDBRANCH   1  24
TORSDOF 1
ENDMDL
MODEL 3
REMARK VINA RESULT:   -10.617      2.129      5.450
REMARK INTER + INTRA:         -11.334
REMARK INTER:                 -11.266
REMARK INTRA:                  -0.068
REMARK UNBOUND:                -0.096
REMARK  Name = COc1ccc2c3c1O[C@@]1(C)C(=O)C=C[C@@H]4[C@@H](C2)N(C)CC[C@]341         ZINC000100393555
REMARK  4 active torsions:
REMARK  status: ('A' for Active; 'I' for Inactive)
REMARK    1  A    between atoms: C_1  and  O_2
REMARK    2  A    between atoms: O_2  and  C_3
REMARK    3  A    between atoms: C_10  and  C_11
REMARK    4  A    between atoms: N_19  and  C_20
REMARK                            x       y       z     vdW  Elec       q    Type
REMARK                         _______ _______ _______ _____ _____    ______ ____
ROOT
ATOM      1  C   UNL     1      -4.631   3.712 -23.077  0.00  0.00    +0.162 A 
ATOM      2  C   UNL     1      -4.809   4.153 -24.249  0.00  0.00    +0.050 A 
ATOM      3  C   UNL     1      -3.869   4.157 -25.077  0.00  0.00    +0.008 A 
ATOM      4  C   UNL     1      -2.741   3.721 -24.743  0.00  0.00    -0.034 A 
ATOM      5  C   UNL     1      -2.544   3.278 -23.580  0.00  0.00    +0.013 A 
ATOM      6  C   UNL     1      -1.419   2.844 -23.249  0.00  0.00    +0.062 C 
ATOM      7  C   UNL     1      -0.184   2.327 -22.761  0.00  0.00    +0.067 C 
ATOM      8  C   UNL     1       0.894   2.319 -23.672  0.00  0.00    +0.132 C 
ATOM      9  N   UNL     1       0.657   2.818 -24.969  0.00  0.00    +0.236 N 
ATOM     10  H   UNL     1       1.400   2.836 -25.669  0.00  0.00    +0.203 HD
ATOM     11  C   UNL     1       1.559   2.846 -25.836  0.00  0.00    +0.190 C 
ATOM     12  C   UNL     1      -0.660   3.289 -25.247  0.00  0.00    +0.076 C 
ATOM     13  C   UNL     1      -0.477   2.847 -24.075  0.00  0.00    +0.076 C 
ATOM     14  C   UNL     1       0.659   2.409 -23.739  0.00  0.00    -0.013 C 
ATOM     15  C   UNL     1       0.846   1.970 -22.581  0.00  0.00    +0.046 C 
ATOM     16  C   UNL     1      -0.099   1.964 -21.742  0.00  0.00    +0.200 C 
ATOM     17  O   UNL     1       0.090   1.525 -20.585  0.00  0.00    -0.288 OA
ATOM     18  C   UNL     1      -1.225   2.398 -22.072  0.00  0.00    +0.180 C 
ATOM     19  C   UNL     1      -1.322   2.029 -20.880  0.00  0.00    +0.065 C 
ATOM     20  O   UNL     1      -2.650   2.669 -21.654  0.00  0.00    -0.473 OA
ATOM     21  C   UNL     1      -1.783   3.724 -25.581  0.00  0.00    +0.090 C 
ATOM     22  C   UNL     1      -3.489   3.272 -22.742  0.00  0.00    +0.167 A 
ENDROOT
BRANCH   1  24
ATOM     23  C   UNL     1      -5.958   2.635 -21.743  0.00  0.00    +0.277 C 
ATOM     24  O   UNL     1      -5.573   3.710 -22.254  0.00  0.00    -0.491 OA
ENDBRANCH   1  24
TORSDOF 1
ENDMDL
MODEL 4
REMARK VINA RESULT:   -10.607      1.983      3.168
REMARK INTER + INTRA:         -11.323
REMARK INTER:                 -11.209
REMARK INTRA:                  -0.114
REMARK UNBOUND:                -0.096
REMARK  Name = COc1ccc2c3c1O[C@@]1(C)C(=O)C=C[C@@H]4[C@@H](C2)N(C)CC[C@]341         ZINC000100393555
REMARK  4 active torsions:
REMARK  status: ('A' for Active; 'I' for Inactive)
REMARK    1  A    between atoms: C_1  and  O_2
REMARK    2  A    between atoms: O_2  and  C_3
REMARK    3  A    between atoms: C_10  and  C_11
REMARK    4  A    between atoms: N_19  and  C_20
REMARK                            x       y       z     vdW  Elec       q    Type
REMARK                         _______ _______ _______ _____ _____    ______ ____
ROOT
ATOM      1  C   UNL     1       0.145   1.912 -21.678  0.00  0.00    +0.162 A 
ATOM      2  C   UNL     1       0.969   2.077 -22.624  0.00  0.00    +0.050 A 
ATOM      3  C   UNL     1       0.593   2.555 -23.718  0.00  0.00    +0.008 A 
ATOM      4  C   UNL     1      -0.610   2.873 -23.881  0.00  0.00    -0.034 A 
ATOM      5  C   UNL     1      -1.445   2.716 -22.951  0.00  0.00    +0.013 A 
ATOM      6  C   UNL     1      -2.644   3.034 -23.115  0.00  0.00    +0.062 C 
ATOM      7  C   UNL     1      -4.029   3.359 -23.186  0.00  0.00    +0.067 C 
ATOM      8  C   UNL     1      -4.482   3.900 -24.409  0.00  0.00    +0.132 C 
ATOM      9  N   UNL     1      -3.535   4.069 -25.439  0.00  0.00    +0.236 N 
ATOM     10  H   UNL     1      -3.806   4.455 -26.344  0.00  0.00    +0.203 HD
ATOM     11  C   UNL     1      -3.854   4.541 -26.553  0.00  0.00    +0.190 C 
ATOM     12  C   UNL     1      -2.195   3.676 -25.152  0.00  0.00    +0.076 C 
ATOM     13  C   UNL     1      -3.022   3.512 -24.208  0.00  0.00    +0.076 C 
ATOM     14  C   UNL     1      -4.233   3.833 -24.373  0.00  0.00    -0.013 C 
ATOM     15  C   UNL     1      -5.057   3.674 -23.443  0.00  0.00    +0.046 C 
ATOM     16  C   UNL     1      -4.682   3.192 -22.336  0.00  0.00    +0.200 C 
ATOM     17  O   UNL     1      -5.508   3.033 -21.408  0.00  0.00    -0.288 OA
ATOM     18  C   UNL     1      -3.484   2.874 -22.171  0.00  0.00    +0.180 C 
ATOM     19  C   UNL     1      -4.072   2.611 -21.098  0.00  0.00    +0.065 C 
ATOM     20  O   UNL     1      -2.440   2.310 -21.237  0.00  0.00    -0.473 OA
ATOM     21  C   UNL     1      -0.996   3.359 -24.992  0.00  0.00    +0.090 C 
ATOM     22  C   UNL     1      -1.070   2.235 -21.845  0.00  0.00    +0.167 A 
ENDROOT
BRANCH   1  24
ATOM     23  C   UNL     1       1.744   1.404 -20.305  0.00  0.00    +0.277 C 
ATOM     24  O   UNL     1       0.525   1.435 -20.586  0.00  0.00    -0.491 OA
ENDBRANCH   1  24
TORSDOF 1
ENDMDL
MODEL 5
REMARK VINA RESULT:   -10.556      1.795      3.138
REMARK INTER + INTRA:         -11.268
REMARK INTER:                 -11.119
REMARK INTRA:                  -0.150
REMARK UNBOUND:                -0.096
REMARK  Name = COc1ccc2c3c1O[C@@]1(C)C(=O)C=C[C@@H]4[C@@H](C2)N(C)CC[C@]341         ZINC000100393555
REMARK  4 active torsions:
REMARK  status: ('A' for Active; 'I' for Inactive)
REMARK    1  A    between atoms: C_1  and  O_2
REMARK    2  A    between atoms: O_2  and  C_3
REMARK    3  A    between atoms: C_10  and  C_11
REMARK    4  A    between atoms: N_19  and  C_20
REMARK                            x       y       z     vdW  Elec       q    Type
REMARK                         _______ _______ _______ _____ _____    ______ ____
ROOT
ATOM      1  C   UNL     1       1.155   3.075 -23.293  0.00  0.00    +0.162 A 
ATOM      2  C   UNL     1       1.330   3.195 -24.540  0.00  0.00    +0.050 A 
ATOM      3  C   UNL     1       0.354   3.355 -25.307  0.00  0.00    +0.008 A 
ATOM      4  C   UNL     1      -0.809   3.397 -24.837  0.00  0.00    -0.034 A 
ATOM      5  C   UNL     1      -1.004   3.279 -23.598  0.00  0.00    +0.013 A 
ATOM      6  C   UNL     1      -2.164   3.321 -23.132  0.00  0.00    +0.062 C 
ATOM      7  C   UNL     1      -3.436   3.353 -22.490  0.00  0.00    +0.067 C 
ATOM      8  C   UNL     1      -4.556   3.532 -23.330  0.00  0.00    +0.132 C 
ATOM      9  N   UNL     1      -4.320   3.662 -24.714  0.00  0.00    +0.236 N 
ATOM     10  H   UNL     1      -5.092   3.793 -25.368  0.00  0.00    +0.203 HD
ATOM     11  C   UNL     1      -5.258   3.823 -25.527  0.00  0.00    +0.190 C 
ATOM     12  C   UNL     1      -2.962   3.600 -25.145  0.00  0.00    +0.076 C 
ATOM     13  C   UNL     1      -3.142   3.481 -23.897  0.00  0.00    +0.076 C 
ATOM     14  C   UNL     1      -4.314   3.523 -23.425  0.00  0.00    -0.013 C 
ATOM     15  C   UNL     1      -4.498   3.405 -22.192  0.00  0.00    +0.046 C 
ATOM     16  C   UNL     1      -3.516   3.243 -21.414  0.00  0.00    +0.200 C 
ATOM     17  O   UNL     1      -3.703   3.126 -20.181  0.00  0.00    -0.288 OA
ATOM     18  C   UNL     1      -2.355   3.201 -21.879  0.00  0.00    +0.180 C 
ATOM     19  C   UNL     1      -2.247   3.060 -20.640  0.00  0.00    +0.065 C 
ATOM     20  O   UNL     1      -0.881   3.054 -21.592  0.00  0.00    -0.473 OA
ATOM     21  C   UNL     1      -1.804   3.559 -25.614  0.00  0.00    +0.090 C 
ATOM     22  C   UNL     1      -0.021   3.118 -22.821  0.00  0.00    +0.167 A 
ENDROOT
BRANCH   1  24
ATOM     23  C   UNL     1       2.419   1.774 -22.105  0.00  0.00    +0.277 C 
ATOM     24  O   UNL     1       2.134   2.916 -22.530  0.00  0.00    -0.491 OA
ENDBRANCH   1  24
TORSDOF 1
ENDMDL
MODEL 6
REMARK VINA RESULT:   -10.092      2.123      4.372
REMARK INTER + INTRA:         -10.778
REMARK INTER:                 -10.627
REMARK INTRA:                  -0.150
REMARK UNBOUND:                -0.096
REMARK  Name = COc1ccc2c3c1O[C@@]1(C)C(=O)C=C[C@@H]4[C@@H](C2)N(C)CC[C@]341         ZINC000100393555
REMARK  4 active torsions:
REMARK  status: ('A' for Active; 'I' for Inactive)
REMARK    1  A    between atoms: C_1  and  O_2
REMARK    2  A    between atoms: O_2  and  C_3
REMARK    3  A    between atoms: C_10  and  C_11
REMARK    4  A    between atoms: N_19  and  C_20
REMARK                            x       y       z     vdW  Elec       q    Type
REMARK                         _______ _______ _______ _____ _____    ______ ____
ROOT
ATOM      1  C   UNL     1      -4.818   3.401 -21.646  0.00  0.00    +0.162 A 
ATOM      2  C   UNL     1      -4.124   3.379 -20.588  0.00  0.00    +0.050 A 
ATOM      3  C   UNL     1      -2.874   3.389 -20.648  0.00  0.00    +0.008 A 
ATOM      4  C   UNL     1      -2.302   3.420 -21.765  0.00  0.00    -0.034 A 
ATOM      5  C   UNL     1      -2.976   3.443 -22.829  0.00  0.00    +0.013 A 
ATOM      6  C   UNL     1      -2.404   3.474 -23.941  0.00  0.00    +0.062 C 
ATOM      7  C   UNL     1      -1.865   3.511 -25.259  0.00  0.00    +0.067 C 
ATOM      8  C   UNL     1      -0.457   3.523 -25.358  0.00  0.00    +0.132 C 
ATOM      9  N   UNL     1       0.283   3.497 -24.158  0.00  0.00    +0.236 N 
ATOM     10  H   UNL     1       1.303   3.505 -24.169  0.00  0.00    +0.203 HD
ATOM     11  C   UNL     1       1.534   3.506 -24.158  0.00  0.00    +0.190 C 
ATOM     12  C   UNL     1      -0.463   3.462 -22.943  0.00  0.00    +0.076 C 
ATOM     13  C   UNL     1      -1.154   3.484 -24.004  0.00  0.00    +0.076 C 
ATOM     14  C   UNL     1      -0.578   3.516 -25.128  0.00  0.00    -0.013 C 
ATOM     15  C   UNL     1      -1.255   3.538 -26.181  0.00  0.00    +0.046 C 
ATOM     16  C   UNL     1      -2.518   3.528 -26.125  0.00  0.00    +0.200 C 
ATOM     17  O   UNL     1      -3.194   3.550 -27.179  0.00  0.00    -0.288 OA
ATOM     18  C   UNL     1      -3.091   3.496 -25.013  0.00  0.00    +0.180 C 
ATOM     19  C   UNL     1      -3.995   3.512 -25.879  0.00  0.00    +0.065 C 
ATOM     20  O   UNL     1      -4.401   3.469 -24.264  0.00  0.00    -0.473 OA
ATOM     21  C   UNL     1      -1.031   3.430 -21.830  0.00  0.00    +0.090 C 
ATOM     22  C   UNL     1      -4.238   3.433 -22.773  0.00  0.00    +0.167 A 
ENDROOT
BRANCH   1  24
ATOM     23  C   UNL     1      -6.692   2.311 -21.675  0.00  0.00    +0.277 C 
ATOM     24  O   UNL     1      -6.067   3.391 -21.581  0.00  0.00    -0.491 OA
ENDBRANCH   1  24
TORSDOF 1
ENDMDL
MODEL 7
REMARK VINA RESULT:   -10.056      2.789      6.589
REMARK INTER + INTRA:         -10.740
REMARK INTER:                 -10.619
REMARK INTRA:                  -0.121
REMARK UNBOUND:                -0.096
REMARK  Name = COc1ccc2c3c1O[C@@]1(C)C(=O)C=C[C@@H]4[C@@H](C2)N(C)CC[C@]341         ZINC000100393555
REMARK  4 active torsions:
REMARK  status: ('A' for Active; 'I' for Inactive)
REMARK    1  A    between atoms: C_1  and  O_2
REMARK    2  A    between atoms: O_2  and  C_3
REMARK    3  A    between atoms: C_10  and  C_11
REMARK    4  A    between atoms: N_19  and  C_20
REMARK                            x       y       z     vdW  Elec       q    Type
REMARK                         _______ _______ _______ _____ _____    ______ ____
ROOT
ATOM      1  C   UNL     1      -1.220   3.266 -23.370  0.00  0.00    +0.162 A 
ATOM      2  C   UNL     1      -1.312   4.502 -23.622  0.00  0.00    +0.050 A 
ATOM      3  C   UNL     1      -0.291   5.227 -23.628  0.00  0.00    +0.008 A 
ATOM      4  C   UNL     1       0.832   4.726 -23.381  0.00  0.00    -0.034 A 
ATOM      5  C   UNL     1       0.944   3.497 -23.128  0.00  0.00    +0.013 A 
ATOM      6  C   UNL     1       2.065   2.999 -22.883  0.00  0.00    +0.062 C 
ATOM      7  C   UNL     1       3.285   2.324 -22.590  0.00  0.00    +0.067 C 
ATOM      8  C   UNL     1       4.453   3.116 -22.589  0.00  0.00    +0.132 C 
ATOM      9  N   UNL     1       4.311   4.490 -22.874  0.00  0.00    +0.236 N 
ATOM     10  H   UNL     1       5.121   5.110 -22.887  0.00  0.00    +0.203 HD
ATOM     11  C   UNL     1       5.296   5.262 -22.893  0.00  0.00    +0.190 C 
ATOM     12  C   UNL     1       2.991   4.959 -23.140  0.00  0.00    +0.076 C 
ATOM     13  C   UNL     1       3.087   3.722 -22.888  0.00  0.00    +0.076 C 
ATOM     14  C   UNL     1       4.219   3.218 -22.640  0.00  0.00    -0.013 C 
ATOM     15  C   UNL     1       4.321   1.996 -22.389  0.00  0.00    +0.046 C 
ATOM     16  C   UNL     1       3.293   1.259 -22.382  0.00  0.00    +0.200 C 
ATOM     17  O   UNL     1       3.397   0.037 -22.131  0.00  0.00    -0.288 OA
ATOM     18  C   UNL     1       2.172   1.756 -22.628  0.00  0.00    +0.180 C 
ATOM     19  C   UNL     1       1.982   0.537 -22.416  0.00  0.00    +0.065 C 
ATOM     20  O   UNL     1       0.688   1.521 -22.779  0.00  0.00    -0.473 OA
ATOM     21  C   UNL     1       1.872   5.460 -23.386  0.00  0.00    +0.090 C 
ATOM     22  C   UNL     1      -0.083   2.762 -23.122  0.00  0.00    +0.167 A 
ENDROOT
BRANCH   1  24
ATOM     23  C   UNL     1      -3.296   2.952 -22.827  0.00  0.00    +0.277 C 
ATOM     24  O   UNL     1      -2.243   2.545 -23.366  0.00  0.00    -0.491 OA
ENDBRANCH   1  24
TORSDOF 1
ENDMDL
MODEL 8
REMARK VINA RESULT:    -9.751      2.304      5.847
REMARK INTER + INTRA:         -10.417
REMARK INTER:                 -10.300
REMARK INTRA:                  -0.117
REMARK UNBOUND:                -0.096
REMARK  Name = COc1ccc2c3c1O[C@@]1(C)C(=O)C=C[C@@H]4[C@@H](C2)N(C)CC[C@]341         ZINC000100393555
REMARK  4 active torsions:
REMARK  status: ('A' for Active; 'I' for Inactive)
REMARK    1  A    between atoms: C_1  and  O_2
REMARK    2  A    between atoms: O_2  and  C_3
REMARK    3  A    between atoms: C_10  and  C_11
REMARK    4  A    between atoms: N_19  and  C_20
REMARK                            x       y       z     vdW  Elec       q    Type
REMARK                         _______ _______ _______ _____ _____    ______ ____
ROOT
ATOM      1  C   UNL     1      -2.879   3.282 -24.357  0.00  0.00    +0.162 A 
ATOM      2  C   UNL     1      -2.565   3.711 -25.504  0.00  0.00    +0.050 A 
ATOM      3  C   UNL     1      -1.369   3.724 -25.874  0.00  0.00    +0.008 A 
ATOM      4  C   UNL     1      -0.472   3.308 -25.100  0.00  0.00    -0.034 A 
ATOM      5  C   UNL     1      -0.765   2.877 -23.953  0.00  0.00    +0.013 A 
ATOM      6  C   UNL     1       0.130   2.462 -23.185  0.00  0.00    +0.062 C 
ATOM      7  C   UNL     1       1.061   1.967 -22.226  0.00  0.00    +0.067 C 
ATOM      8  C   UNL     1       2.418   1.969 -22.614  0.00  0.00    +0.132 C 
ATOM      9  N   UNL     1       2.729   2.455 -23.901  0.00  0.00    +0.236 N 
ATOM     10  H   UNL     1       3.693   2.480 -24.235  0.00  0.00    +0.203 HD
ATOM     11  C   UNL     1       3.906   2.491 -24.322  0.00  0.00    +0.190 C 
ATOM     12  C   UNL     1       1.637   2.904 -24.700  0.00  0.00    +0.076 C 
ATOM     13  C   UNL     1       1.327   2.474 -23.551  0.00  0.00    +0.076 C 
ATOM     14  C   UNL     1       2.230   2.055 -22.773  0.00  0.00    -0.013 C 
ATOM     15  C   UNL     1       1.931   1.628 -21.635  0.00  0.00    +0.046 C 
ATOM     16  C   UNL     1       0.724   1.613 -21.257  0.00  0.00    +0.200 C 
ATOM     17  O   UNL     1       0.427   1.186 -20.119  0.00  0.00    -0.288 OA
ATOM     18  C   UNL     1      -0.172   2.028 -22.026  0.00  0.00    +0.180 C 
ATOM     19  C   UNL     1      -0.745   1.667 -20.973  0.00  0.00    +0.065 C 
ATOM     20  O   UNL     1      -1.646   2.280 -22.233  0.00  0.00    -0.473 OA
ATOM     21  C   UNL     1       0.745   3.319 -25.472  0.00  0.00    +0.090 C 
ATOM     22  C   UNL     1      -1.971   2.862 -23.577  0.00  0.00    +0.167 A 
ENDROOT
BRANCH   1  24
ATOM     23  C   UNL     1      -4.881   4.108 -24.458  0.00  0.00    +0.277 C 
ATOM     24  O   UNL     1      -4.076   3.272 -23.992  0.00  0.00    -0.491 OA
ENDBRANCH   1  24
TORSDOF 1
ENDMDL
MODEL 9
REMARK VINA RESULT:    -9.632      2.190      3.761
REMARK INTER + INTRA:         -10.290
REMARK INTER:                 -10.195
REMARK INTRA:                  -0.096
REMARK UNBOUND:                -0.096
REMARK  Name = COc1ccc2c3c1O[C@@]1(C)C(=O)C=C[C@@H]4[C@@H](C2)N(C)CC[C@]341         ZINC000100393555
REMARK  4 active torsions:
REMARK  status: ('A' for Active; 'I' for Inactive)
REMARK    1  A    between atoms: C_1  and  O_2
REMARK    2  A    between atoms: O_2  and  C_3
REMARK    3  A    between atoms: C_10  and  C_11
REMARK    4  A    between atoms: N_19  and  C_20
REMARK                            x       y       z     vdW  Elec       q    Type
REMARK                         _______ _______ _______ _____ _____    ______ ____
ROOT
ATOM      1  C   UNL     1       2.835   2.280 -22.614  0.00  0.00    +0.162 A 
ATOM      2  C   UNL     1       3.375   2.600 -23.711  0.00  0.00    +0.050 A 
ATOM      3  C   UNL     1       2.673   2.939 -24.691  0.00  0.00    +0.008 A 
ATOM      4  C   UNL     1       1.422   2.961 -24.585  0.00  0.00    -0.034 A 
ATOM      5  C   UNL     1       0.866   2.646 -23.500  0.00  0.00    +0.013 A 
ATOM      6  C   UNL     1      -0.380   2.669 -23.396  0.00  0.00    +0.062 C 
ATOM      7  C   UNL     1      -1.786   2.658 -23.162  0.00  0.00    +0.067 C 
ATOM      8  C   UNL     1      -2.604   3.035 -24.249  0.00  0.00    +0.132 C 
ATOM      9  N   UNL     1      -1.965   3.386 -25.456  0.00  0.00    +0.236 N 
ATOM     10  H   UNL     1      -2.506   3.666 -26.274  0.00  0.00    +0.203 HD
ATOM     11  C   UNL     1      -2.617   3.732 -26.467  0.00  0.00    +0.190 C 
ATOM     12  C   UNL     1      -0.541   3.327 -25.471  0.00  0.00    +0.076 C 
ATOM     13  C   UNL     1      -1.085   3.007 -24.374  0.00  0.00    +0.076 C 
ATOM     14  C   UNL     1      -2.344   3.030 -24.268  0.00  0.00    -0.013 C 
ATOM     15  C   UNL     1      -2.889   2.715 -23.186  0.00  0.00    +0.046 C 
ATOM     16  C   UNL     1      -2.184   2.373 -22.194  0.00  0.00    +0.200 C 
ATOM     17  O   UNL     1      -2.731   2.058 -21.113  0.00  0.00    -0.288 OA
ATOM     18  C   UNL     1      -0.938   2.349 -22.297  0.00  0.00    +0.180 C 
ATOM     19  C   UNL     1      -1.205   1.994 -21.126  0.00  0.00    +0.065 C 
ATOM     20  O   UNL     1       0.384   2.078 -21.619  0.00  0.00    -0.473 OA
ATOM     21  C   UNL     1       0.705   3.305 -25.579  0.00  0.00    +0.090 C 
ATOM     22  C   UNL     1       1.571   2.304 -22.509  0.00  0.00    +0.167 A 
ENDROOT
BRANCH   1  24
ATOM     23  C   UNL     1       3.460   0.783 -21.175  0.00  0.00    +0.277 C 
ATOM     24  O   UNL     1       3.541   1.943 -21.637  0.00  0.00    -0.491 OA
ENDBRANCH   1  24
TORSDOF 1
ENDMDL
