MODEL 1
REMARK VINA RESULT:    -9.645      0.000      0.000
REMARK INTER + INTRA:          -9.927
REMARK INTER:                  -9.927
REMARK INTRA:                   0.000
REMARK UNBOUND:                 0.000
REMARK  Name = ZINC000019800971
REMARK  4 active torsions:
REMARK  status: ('A' for Active; 'I' for Inactive)
REMARK    1  A    between atoms: C_1  and  C_2
REMARK    2  A    between atoms: C_9  and  O_10
REMARK    3  A    between atoms: C_14  and  C_15
REMARK    4  A    between atoms: C_14  and  C_16
REMARK                            x       y       z     vdW  Elec       q    Type
REMARK                         _______ _______ _______ _____ _____    ______ ____
ROOT
ATOM      1  C   UNL     1      -3.913   2.564 -20.628  0.00  0.00    +0.008 C 
ATOM      2  C   UNL     1      -4.271   2.997 -21.800  0.00  0.00    -0.010 C 
ATOM      3  C   UNL     1      -5.469   3.369 -22.143  0.00  0.00    +0.004 C 
ATOM      4  C   UNL     1      -5.434   3.737 -23.390  0.00  0.00    +0.011 C 
ATOM      5  C   UNL     1      -4.214   3.594 -23.817  0.00  0.00    +0.059 C 
ATOM      6  C   UNL     1      -3.842   3.877 -25.030  0.00  0.00    +0.139 C 
ATOM      7  C   UNL     1      -2.660   3.773 -25.560  0.00  0.00    +0.106 C 
ATOM      8  C   UNL     1      -1.557   3.360 -25.008  0.00  0.00    +0.126 C 
ATOM      9  C   UNL     1      -1.366   2.949 -23.790  0.00  0.00    +0.028 C 
ATOM     10  C   UNL     1      -2.228   2.850 -22.823  0.00  0.00    +0.005 C 
ATOM     11  C   UNL     1      -0.988   2.513 -22.624  0.00  0.00    -0.026 C 
ATOM     12  C   UNL     1      -1.049   2.150 -21.378  0.00  0.00    +0.011 C 
ATOM     13  C   UNL     1       0.273   2.302 -22.860  0.00  0.00    +0.011 C 
ATOM     14  O   UNL     1      -4.776   4.323 -25.817  0.00  0.00    -0.297 OA
ATOM     15  C   UNL     1      -3.496   3.137 -22.835  0.00  0.00    +0.006 C 
ENDROOT
BRANCH   8  16
ATOM     16  O   UNL     1      -0.509   3.358 -25.776  0.00  0.00    -0.391 OA
ATOM     17  H   UNL     1       0.289   3.469 -25.235  0.00  0.00    +0.210 HD
ENDBRANCH   8  16
TORSDOF 1
ENDMDL
MODEL 2
REMARK VINA RESULT:    -9.320      1.355      3.406
REMARK INTER + INTRA:          -9.593
REMARK INTER:                  -9.593
REMARK INTRA:                   0.000
REMARK UNBOUND:                 0.000
REMARK  Name = ZINC000019800971
REMARK  4 active torsions:
REMARK  status: ('A' for Active; 'I' for Inactive)
REMARK    1  A    between atoms: C_1  and  C_2
REMARK    2  A    between atoms: C_9  and  O_10
REMARK    3  A    between atoms: C_14  and  C_15
REMARK    4  A    between atoms: C_14  and  C_16
REMARK                            x       y       z     vdW  Elec       q    Type
REMARK                         _______ _______ _______ _____ _____    ______ ____
ROOT
ATOM      1  C   UNL     1      -5.579   3.399 -22.496  0.00  0.00    +0.008 C 
ATOM      2  C   UNL     1      -4.363   3.153 -22.109  0.00  0.00    -0.010 C 
ATOM      3  C   UNL     1      -3.985   2.915 -20.887  0.00  0.00    +0.004 C 
ATOM      4  C   UNL     1      -2.700   2.716 -20.897  0.00  0.00    +0.011 C 
ATOM      5  C   UNL     1      -2.284   2.832 -22.123  0.00  0.00    +0.059 C 
ATOM      6  C   UNL     1      -1.040   2.690 -22.475  0.00  0.00    +0.139 C 
ATOM      7  C   UNL     1      -0.518   2.783 -23.661  0.00  0.00    +0.106 C 
ATOM      8  C   UNL     1      -1.110   3.041 -24.790  0.00  0.00    +0.126 C 
ATOM      9  C   UNL     1      -2.370   3.269 -25.010  0.00  0.00    +0.028 C 
ATOM     10  C   UNL     1      -3.350   3.296 -24.156  0.00  0.00    +0.005 C 
ATOM     11  C   UNL     1      -3.580   3.517 -25.417  0.00  0.00    -0.026 C 
ATOM     12  C   UNL     1      -4.865   3.711 -25.382  0.00  0.00    +0.011 C 
ATOM     13  C   UNL     1      -3.363   3.670 -26.690  0.00  0.00    +0.011 C 
ATOM     14  O   UNL     1      -0.209   2.420 -21.512  0.00  0.00    -0.297 OA
ATOM     15  C   UNL     1      -3.312   3.101 -22.872  0.00  0.00    +0.006 C 
ENDROOT
BRANCH   8  16
ATOM     16  O   UNL     1      -0.339   3.075 -25.836  0.00  0.00    -0.391 OA
ATOM     17  H   UNL     1       0.577   2.894 -25.569  0.00  0.00    +0.210 HD
ENDBRANCH   8  16
TORSDOF 1
ENDMDL
MODEL 3
REMARK VINA RESULT:    -8.747      1.301      2.775
REMARK INTER + INTRA:          -9.003
REMARK INTER:                  -9.003
REMARK INTRA:                   0.000
REMARK UNBOUND:                 0.000
REMARK  Name = ZINC000019800971
REMARK  4 active torsions:
REMARK  status: ('A' for Active; 'I' for Inactive)
REMARK    1  A    between atoms: C_1  and  C_2
REMARK    2  A    between atoms: C_9  and  O_10
REMARK    3  A    between atoms: C_14  and  C_15
REMARK    4  A    between atoms: C_14  and  C_16
REMARK                            x       y       z     vdW  Elec       q    Type
REMARK                         _______ _______ _______ _____ _____    ______ ____
ROOT
ATOM      1  C   UNL     1      -0.988   2.273 -21.392  0.00  0.00    +0.008 C 
ATOM      2  C   UNL     1      -2.262   2.529 -21.435  0.00  0.00    -0.010 C 
ATOM      3  C   UNL     1      -3.100   2.401 -20.449  0.00  0.00    +0.004 C 
ATOM      4  C   UNL     1      -4.278   2.750 -20.875  0.00  0.00    +0.011 C 
ATOM      5  C   UNL     1      -4.168   3.095 -22.123  0.00  0.00    +0.059 C 
ATOM      6  C   UNL     1      -5.170   3.498 -22.847  0.00  0.00    +0.139 C 
ATOM      7  C   UNL     1      -5.175   3.863 -24.094  0.00  0.00    +0.106 C 
ATOM      8  C   UNL     1      -4.178   3.916 -24.926  0.00  0.00    +0.126 C 
ATOM      9  C   UNL     1      -2.930   3.617 -24.717  0.00  0.00    +0.028 C 
ATOM     10  C   UNL     1      -2.372   3.190 -23.624  0.00  0.00    +0.005 C 
ATOM     11  C   UNL     1      -1.654   3.366 -24.694  0.00  0.00    -0.026 C 
ATOM     12  C   UNL     1      -0.487   3.012 -24.245  0.00  0.00    +0.011 C 
ATOM     13  C   UNL     1      -1.343   3.665 -25.920  0.00  0.00    +0.011 C 
ATOM     14  O   UNL     1      -6.320   3.541 -22.242  0.00  0.00    -0.297 OA
ATOM     15  C   UNL     1      -2.922   2.958 -22.469  0.00  0.00    +0.006 C 
ENDROOT
BRANCH   8  16
ATOM     16  O   UNL     1      -4.467   4.322 -26.127  0.00  0.00    -0.391 OA
ATOM     17  H   UNL     1      -5.430   4.330 -26.243  0.00  0.00    +0.210 HD
ENDBRANCH   8  16
TORSDOF 1
ENDMDL
MODEL 4
REMARK VINA RESULT:    -8.728      2.031      3.286
REMARK INTER + INTRA:          -8.983
REMARK INTER:                  -8.983
REMARK INTRA:                   0.000
REMARK UNBOUND:                 0.000
REMARK  Name = ZINC000019800971
REMARK  4 active torsions:
REMARK  status: ('A' for Active; 'I' for Inactive)
REMARK    1  A    between atoms: C_1  and  C_2
REMARK    2  A    between atoms: C_9  and  O_10
REMARK    3  A    between atoms: C_14  and  C_15
REMARK    4  A    between atoms: C_14  and  C_16
REMARK                            x       y       z     vdW  Elec       q    Type
REMARK                         _______ _______ _______ _____ _____    ______ ____
ROOT
ATOM      1  C   UNL     1      -4.049   4.321 -25.504  0.00  0.00    +0.008 C 
ATOM      2  C   UNL     1      -4.283   3.894 -24.299  0.00  0.00    -0.010 C 
ATOM      3  C   UNL     1      -5.436   3.900 -23.697  0.00  0.00    +0.004 C 
ATOM      4  C   UNL     1      -5.272   3.396 -22.510  0.00  0.00    +0.011 C 
ATOM      5  C   UNL     1      -4.018   3.079 -22.377  0.00  0.00    +0.059 C 
ATOM      6  C   UNL     1      -3.523   2.548 -21.299  0.00  0.00    +0.139 C 
ATOM      7  C   UNL     1      -2.296   2.194 -21.059  0.00  0.00    +0.106 C 
ATOM      8  C   UNL     1      -1.260   2.284 -21.839  0.00  0.00    +0.126 C 
ATOM      9  C   UNL     1      -1.195   2.749 -23.051  0.00  0.00    +0.028 C 
ATOM     10  C   UNL     1      -2.151   3.240 -23.782  0.00  0.00    +0.005 C 
ATOM     11  C   UNL     1      -0.942   3.171 -24.255  0.00  0.00    -0.026 C 
ATOM     12  C   UNL     1      -1.131   3.678 -25.436  0.00  0.00    +0.011 C 
ATOM     13  C   UNL     1       0.334   2.926 -24.315  0.00  0.00    +0.011 C 
ATOM     14  O   UNL     1      -4.368   2.345 -20.332  0.00  0.00    -0.297 OA
ATOM     15  C   UNL     1      -3.407   3.387 -23.483  0.00  0.00    +0.006 C 
ENDROOT
BRANCH   8  16
ATOM     16  O   UNL     1      -0.140   1.850 -21.341  0.00  0.00    -0.391 OA
ATOM     17  H   UNL     1      -0.096   2.076 -20.398  0.00  0.00    +0.210 HD
ENDBRANCH   8  16
TORSDOF 1
ENDMDL
MODEL 5
REMARK VINA RESULT:    -8.527      1.227      3.552
REMARK INTER + INTRA:          -8.776
REMARK INTER:                  -8.776
REMARK INTRA:                   0.000
REMARK UNBOUND:                 0.000
REMARK  Name = ZINC000019800971
REMARK  4 active torsions:
REMARK  status: ('A' for Active; 'I' for Inactive)
REMARK    1  A    between atoms: C_1  and  C_2
REMARK    2  A    between atoms: C_9  and  O_10
REMARK    3  A    between atoms: C_14  and  C_15
REMARK    4  A    between atoms: C_14  and  C_16
REMARK                            x       y       z     vdW  Elec       q    Type
REMARK                         _______ _______ _______ _____ _____    ______ ____
ROOT
ATOM      1  C   UNL     1       0.062   2.684 -23.264  0.00  0.00    +0.008 C 
ATOM      2  C   UNL     1      -0.815   3.096 -24.129  0.00  0.00    -0.010 C 
ATOM      3  C   UNL     1      -0.581   3.391 -25.374  0.00  0.00    +0.004 C 
ATOM      4  C   UNL     1      -1.702   3.763 -25.917  0.00  0.00    +0.011 C 
ATOM      5  C   UNL     1      -2.630   3.697 -25.008  0.00  0.00    +0.059 C 
ATOM      6  C   UNL     1      -3.874   4.005 -25.230  0.00  0.00    +0.139 C 
ATOM      7  C   UNL     1      -4.875   3.977 -24.403  0.00  0.00    +0.106 C 
ATOM      8  C   UNL     1      -4.882   3.634 -23.149  0.00  0.00    +0.126 C 
ATOM      9  C   UNL     1      -3.888   3.235 -22.413  0.00  0.00    +0.028 C 
ATOM     10  C   UNL     1      -2.642   3.079 -22.749  0.00  0.00    +0.005 C 
ATOM     11  C   UNL     1      -3.023   2.821 -21.533  0.00  0.00    -0.026 C 
ATOM     12  C   UNL     1      -1.890   2.454 -21.014  0.00  0.00    +0.011 C 
ATOM     13  C   UNL     1      -3.800   2.692 -20.498  0.00  0.00    +0.011 C 
ATOM     14  O   UNL     1      -4.151   4.393 -26.440  0.00  0.00    -0.297 OA
ATOM     15  C   UNL     1      -2.082   3.285 -23.904  0.00  0.00    +0.006 C 
ENDROOT
BRANCH   8  16
ATOM     16  O   UNL     1      -6.035   3.699 -22.552  0.00  0.00    -0.391 OA
ATOM     17  H   UNL     1      -6.136   2.938 -21.959  0.00  0.00    +0.210 HD
ENDBRANCH   8  16
TORSDOF 1
ENDMDL
MODEL 6
REMARK VINA RESULT:    -8.509      1.819      4.308
REMARK INTER + INTRA:          -8.758
REMARK INTER:                  -8.758
REMARK INTRA:                   0.000
REMARK UNBOUND:                 0.000
REMARK  Name = ZINC000019800971
REMARK  4 active torsions:
REMARK  status: ('A' for Active; 'I' for Inactive)
REMARK    1  A    between atoms: C_1  and  C_2
REMARK    2  A    between atoms: C_9  and  O_10
REMARK    3  A    between atoms: C_14  and  C_15
REMARK    4  A    between atoms: C_14  and  C_16
REMARK                            x       y       z     vdW  Elec       q    Type
REMARK                         _______ _______ _______ _____ _____    ______ ____
ROOT
ATOM      1  C   UNL     1       0.107   2.557 -24.026  0.00  0.00    +0.008 C 
ATOM      2  C   UNL     1      -0.674   2.547 -22.988  0.00  0.00    -0.010 C 
ATOM      3  C   UNL     1      -0.331   2.220 -21.777  0.00  0.00    +0.004 C 
ATOM      4  C   UNL     1      -1.381   2.332 -21.018  0.00  0.00    +0.011 C 
ATOM      5  C   UNL     1      -2.373   2.728 -21.759  0.00  0.00    +0.059 C 
ATOM      6  C   UNL     1      -3.571   2.937 -21.301  0.00  0.00    +0.139 C 
ATOM      7  C   UNL     1      -4.629   3.330 -21.946  0.00  0.00    +0.106 C 
ATOM      8  C   UNL     1      -4.749   3.611 -23.209  0.00  0.00    +0.126 C 
ATOM      9  C   UNL     1      -3.842   3.569 -24.139  0.00  0.00    +0.028 C 
ATOM     10  C   UNL     1      -2.590   3.235 -24.035  0.00  0.00    +0.005 C 
ATOM     11  C   UNL     1      -3.075   3.586 -25.190  0.00  0.00    -0.026 C 
ATOM     12  C   UNL     1      -2.012   3.466 -25.927  0.00  0.00    +0.011 C 
ATOM     13  C   UNL     1      -3.930   3.978 -26.087  0.00  0.00    +0.011 C 
ATOM     14  O   UNL     1      -3.733   2.724 -20.028  0.00  0.00    -0.297 OA
ATOM     15  C   UNL     1      -1.936   2.860 -22.976  0.00  0.00    +0.006 C 
ENDROOT
BRANCH   8  16
ATOM     16  O   UNL     1      -5.934   3.984 -23.593  0.00  0.00    -0.391 OA
ATOM     17  H   UNL     1      -5.877   4.854 -24.021  0.00  0.00    +0.210 HD
ENDBRANCH   8  16
TORSDOF 1
ENDMDL
MODEL 7
REMARK VINA RESULT:    -8.509      1.977      4.695
REMARK INTER + INTRA:          -8.757
REMARK INTER:                  -8.757
REMARK INTRA:                   0.000
REMARK UNBOUND:                 0.000
REMARK  Name = ZINC000019800971
REMARK  4 active torsions:
REMARK  status: ('A' for Active; 'I' for Inactive)
REMARK    1  A    between atoms: C_1  and  C_2
REMARK    2  A    between atoms: C_9  and  O_10
REMARK    3  A    between atoms: C_14  and  C_15
REMARK    4  A    between atoms: C_14  and  C_16
REMARK                            x       y       z     vdW  Elec       q    Type
REMARK                         _______ _______ _______ _____ _____    ______ ____
ROOT
ATOM      1  C   UNL     1      -3.302   3.941 -26.087  0.00  0.00    +0.008 C 
ATOM      2  C   UNL     1      -2.345   3.626 -25.267  0.00  0.00    -0.010 C 
ATOM      3  C   UNL     1      -1.083   3.526 -25.568  0.00  0.00    +0.004 C 
ATOM      4  C   UNL     1      -0.438   3.194 -24.489  0.00  0.00    +0.011 C 
ATOM      5  C   UNL     1      -1.300   3.089 -23.521  0.00  0.00    +0.059 C 
ATOM      6  C   UNL     1      -0.976   2.768 -22.303  0.00  0.00    +0.139 C 
ATOM      7  C   UNL     1      -1.748   2.636 -21.267  0.00  0.00    +0.106 C 
ATOM      8  C   UNL     1      -3.036   2.791 -21.191  0.00  0.00    +0.126 C 
ATOM      9  C   UNL     1      -3.870   3.117 -22.133  0.00  0.00    +0.028 C 
ATOM     10  C   UNL     1      -3.622   3.369 -23.384  0.00  0.00    +0.005 C 
ATOM     11  C   UNL     1      -4.842   3.431 -22.939  0.00  0.00    -0.026 C 
ATOM     12  C   UNL     1      -5.464   3.763 -24.031  0.00  0.00    +0.011 C 
ATOM     13  C   UNL     1      -5.845   3.377 -22.114  0.00  0.00    +0.011 C 
ATOM     14  O   UNL     1       0.290   2.551 -22.096  0.00  0.00    -0.297 OA
ATOM     15  C   UNL     1      -2.478   3.356 -24.002  0.00  0.00    +0.006 C 
ENDROOT
BRANCH   8  16
ATOM     16  O   UNL     1      -3.560   2.594 -20.018  0.00  0.00    -0.391 OA
ATOM     17  H   UNL     1      -3.321   3.328 -19.429  0.00  0.00    +0.210 HD
ENDBRANCH   8  16
TORSDOF 1
ENDMDL
MODEL 8
REMARK VINA RESULT:    -8.283      0.674      3.633
REMARK INTER + INTRA:          -8.525
REMARK INTER:                  -8.525
REMARK INTRA:                   0.000
REMARK UNBOUND:                 0.000
REMARK  Name = ZINC000019800971
REMARK  4 active torsions:
REMARK  status: ('A' for Active; 'I' for Inactive)
REMARK    1  A    between atoms: C_1  and  C_2
REMARK    2  A    between atoms: C_9  and  O_10
REMARK    3  A    between atoms: C_14  and  C_15
REMARK    4  A    between atoms: C_14  and  C_16
REMARK                            x       y       z     vdW  Elec       q    Type
REMARK                         _______ _______ _______ _____ _____    ______ ____
ROOT
ATOM      1  C   UNL     1      -0.874   1.863 -20.997  0.00  0.00    +0.008 C 
ATOM      2  C   UNL     1      -0.779   2.249 -22.235  0.00  0.00    -0.010 C 
ATOM      3  C   UNL     1       0.303   2.244 -22.956  0.00  0.00    +0.004 C 
ATOM      4  C   UNL     1       0.002   2.700 -24.135  0.00  0.00    +0.011 C 
ATOM      5  C   UNL     1      -1.266   2.987 -24.144  0.00  0.00    +0.059 C 
ATOM      6  C   UNL     1      -1.885   3.468 -25.182  0.00  0.00    +0.139 C 
ATOM      7  C   UNL     1      -3.139   3.788 -25.301  0.00  0.00    +0.106 C 
ATOM      8  C   UNL     1      -4.084   3.707 -24.412  0.00  0.00    +0.126 C 
ATOM      9  C   UNL     1      -4.008   3.286 -23.185  0.00  0.00    +0.028 C 
ATOM     10  C   UNL     1      -2.969   2.842 -22.543  0.00  0.00    +0.005 C 
ATOM     11  C   UNL     1      -4.123   2.904 -21.947  0.00  0.00    -0.026 C 
ATOM     12  C   UNL     1      -3.797   2.446 -20.775  0.00  0.00    +0.011 C 
ATOM     13  C   UNL     1      -5.390   3.127 -21.759  0.00  0.00    +0.011 C 
ATOM     14  O   UNL     1      -1.152   3.652 -26.240  0.00  0.00    -0.297 OA
ATOM     15  C   UNL     1      -1.748   2.709 -22.970  0.00  0.00    +0.006 C 
ENDROOT
BRANCH   8  16
ATOM     16  O   UNL     1      -5.260   4.100 -24.803  0.00  0.00    -0.391 OA
ATOM     17  H   UNL     1      -5.441   3.748 -25.689  0.00  0.00    +0.210 HD
ENDBRANCH   8  16
TORSDOF 1
ENDMDL
MODEL 9
REMARK VINA RESULT:    -8.179      1.860      3.386
REMARK INTER + INTRA:          -8.418
REMARK INTER:                  -8.418
REMARK INTRA:                   0.000
REMARK UNBOUND:                 0.000
REMARK  Name = ZINC000019800971
REMARK  4 active torsions:
REMARK  status: ('A' for Active; 'I' for Inactive)
REMARK    1  A    between atoms: C_1  and  C_2
REMARK    2  A    between atoms: C_9  and  O_10
REMARK    3  A    between atoms: C_14  and  C_15
REMARK    4  A    between atoms: C_14  and  C_16
REMARK                            x       y       z     vdW  Elec       q    Type
REMARK                         _______ _______ _______ _____ _____    ______ ____
ROOT
ATOM      1  C   UNL     1      -1.212   3.389 -25.558  0.00  0.00    +0.008 C 
ATOM      2  C   UNL     1      -2.437   3.543 -25.153  0.00  0.00    -0.010 C 
ATOM      3  C   UNL     1      -3.434   3.958 -25.877  0.00  0.00    +0.004 C 
ATOM      4  C   UNL     1      -4.495   3.979 -25.125  0.00  0.00    +0.011 C 
ATOM      5  C   UNL     1      -4.153   3.578 -23.937  0.00  0.00    +0.059 C 
ATOM      6  C   UNL     1      -4.988   3.485 -22.944  0.00  0.00    +0.139 C 
ATOM      7  C   UNL     1      -4.758   3.099 -21.725  0.00  0.00    +0.106 C 
ATOM      8  C   UNL     1      -3.636   2.711 -21.196  0.00  0.00    +0.126 C 
ATOM      9  C   UNL     1      -2.467   2.613 -21.756  0.00  0.00    +0.028 C 
ATOM     10  C   UNL     1      -2.132   2.879 -22.984  0.00  0.00    +0.005 C 
ATOM     11  C   UNL     1      -1.235   2.454 -22.143  0.00  0.00    -0.026 C 
ATOM     12  C   UNL     1      -0.190   2.440 -22.915  0.00  0.00    +0.011 C 
ATOM     13  C   UNL     1      -0.703   2.033 -21.034  0.00  0.00    +0.011 C 
ATOM     14  O   UNL     1      -6.216   3.823 -23.207  0.00  0.00    -0.297 OA
ATOM     15  C   UNL     1      -2.882   3.308 -23.954  0.00  0.00    +0.006 C 
ENDROOT
BRANCH   8  16
ATOM     16  O   UNL     1      -3.690   2.377 -19.941  0.00  0.00    -0.391 OA
ATOM     17  H   UNL     1      -2.789   2.264 -19.597  0.00  0.00    +0.210 HD
ENDBRANCH   8  16
TORSDOF 1
ENDMDL
