MODEL 1
REMARK VINA RESULT:    -7.393      0.000      0.000
REMARK INTER + INTRA:          -8.423
REMARK INTER:                  -8.226
REMARK INTRA:                  -0.197
REMARK UNBOUND:                -0.166
REMARK  Name = ZINC000001705987
REMARK  5 active torsions:
REMARK  status: ('A' for Active; 'I' for Inactive)
REMARK    1  A    between atoms: C_1  and  O_2
REMARK    2  A    between atoms: O_2  and  C_3
REMARK    3  A    between atoms: C_9  and  C_10
REMARK    4  A    between atoms: C_13  and  O_14
REMARK    5  A    between atoms: O_14  and  C_15
REMARK                            x       y       z     vdW  Elec       q    Type
REMARK                         _______ _______ _______ _____ _____    ______ ____
ROOT
ATOM      1  C   UNL     1      -0.760   3.111 -24.268  0.00  0.00    +0.162 A 
ATOM      2  C   UNL     1      -1.776   3.552 -24.949  0.00  0.00    +0.058 A 
ATOM      3  C   UNL     1      -2.953   3.605 -24.401  0.00  0.00    -0.011 A 
ATOM      4  C   UNL     1      -3.968   4.046 -25.082  0.00  0.00    +0.028 A 
ATOM      5  C   UNL     1      -5.146   4.099 -24.533  0.00  0.00    +0.111 A 
ATOM      6  N   UNL     1      -5.308   3.711 -23.303  0.00  0.00    -0.260 NA
ATOM      7  C   UNL     1      -4.292   3.270 -22.621  0.00  0.00    +0.046 A 
ATOM      8  C   UNL     1      -4.455   2.883 -21.391  0.00  0.00    +0.066 C 
ATOM      9  C   UNL     1      -3.115   3.217 -23.171  0.00  0.00    +0.007 A 
ATOM     10  C   UNL     1      -2.100   2.776 -22.489  0.00  0.00    +0.059 A 
ATOM     11  C   UNL     1      -0.922   2.723 -23.038  0.00  0.00    +0.162 A 
ENDROOT
BRANCH   1  13
ATOM     12  C   UNL     1       0.975   4.143 -25.263  0.00  0.00    +0.277 C 
ATOM     13  O   UNL     1       0.417   3.058 -24.816  0.00  0.00    -0.491 OA
ENDBRANCH   1  13
BRANCH  11  14
ATOM     14  O   UNL     1       0.093   2.282 -22.356  0.00  0.00    -0.491 OA
ATOM     15  C   UNL     1      -0.080   1.363 -21.453  0.00  0.00    +0.277 C 
ENDBRANCH  11  14
TORSDOF 2
ENDMDL
MODEL 2
REMARK VINA RESULT:    -7.386      0.641      2.852
REMARK INTER + INTRA:          -8.416
REMARK INTER:                  -8.234
REMARK INTRA:                  -0.181
REMARK UNBOUND:                -0.166
REMARK  Name = ZINC000001705987
REMARK  5 active torsions:
REMARK  status: ('A' for Active; 'I' for Inactive)
REMARK    1  A    between atoms: C_1  and  O_2
REMARK    2  A    between atoms: O_2  and  C_3
REMARK    3  A    between atoms: C_9  and  C_10
REMARK    4  A    between atoms: C_13  and  O_14
REMARK    5  A    between atoms: O_14  and  C_15
REMARK                            x       y       z     vdW  Elec       q    Type
REMARK                         _______ _______ _______ _____ _____    ______ ____
ROOT
ATOM      1  C   UNL     1      -0.968   2.602 -22.588  0.00  0.00    +0.162 A 
ATOM      2  C   UNL     1      -2.036   2.605 -21.846  0.00  0.00    +0.058 A 
ATOM      3  C   UNL     1      -3.176   2.975 -22.349  0.00  0.00    -0.011 A 
ATOM      4  C   UNL     1      -4.243   2.978 -21.608  0.00  0.00    +0.028 A 
ATOM      5  C   UNL     1      -5.384   3.349 -22.110  0.00  0.00    +0.111 A 
ATOM      6  N   UNL     1      -5.457   3.716 -23.355  0.00  0.00    -0.260 NA
ATOM      7  C   UNL     1      -4.389   3.712 -24.098  0.00  0.00    +0.046 A 
ATOM      8  C   UNL     1      -4.462   4.080 -25.342  0.00  0.00    +0.066 C 
ATOM      9  C   UNL     1      -3.249   3.342 -23.594  0.00  0.00    +0.007 A 
ATOM     10  C   UNL     1      -2.182   3.339 -24.336  0.00  0.00    +0.059 A 
ATOM     11  C   UNL     1      -1.041   2.969 -23.833  0.00  0.00    +0.162 A 
ENDROOT
BRANCH   1  13
ATOM     12  C   UNL     1       0.201   1.480 -21.025  0.00  0.00    +0.277 C 
ATOM     13  O   UNL     1       0.172   2.232 -22.085  0.00  0.00    -0.491 OA
ENDBRANCH   1  13
BRANCH  11  14
ATOM     14  O   UNL     1       0.026   2.966 -24.575  0.00  0.00    -0.491 OA
ATOM     15  C   UNL     1       0.515   4.087 -25.016  0.00  0.00    +0.277 C 
ENDBRANCH  11  14
TORSDOF 2
ENDMDL
MODEL 3
REMARK VINA RESULT:    -7.074      1.437      3.063
REMARK INTER + INTRA:          -8.067
REMARK INTER:                  -7.875
REMARK INTRA:                  -0.192
REMARK UNBOUND:                -0.166
REMARK  Name = ZINC000001705987
REMARK  5 active torsions:
REMARK  status: ('A' for Active; 'I' for Inactive)
REMARK    1  A    between atoms: C_1  and  O_2
REMARK    2  A    between atoms: O_2  and  C_3
REMARK    3  A    between atoms: C_9  and  C_10
REMARK    4  A    between atoms: C_13  and  O_14
REMARK    5  A    between atoms: O_14  and  C_15
REMARK                            x       y       z     vdW  Elec       q    Type
REMARK                         _______ _______ _______ _____ _____    ______ ____
ROOT
ATOM      1  C   UNL     1      -1.049   3.319 -24.259  0.00  0.00    +0.162 A 
ATOM      2  C   UNL     1      -1.048   3.316 -22.959  0.00  0.00    +0.058 A 
ATOM      3  C   UNL     1      -2.171   3.380 -22.308  0.00  0.00    -0.011 A 
ATOM      4  C   UNL     1      -2.171   3.378 -21.009  0.00  0.00    +0.028 A 
ATOM      5  C   UNL     1      -3.295   3.442 -20.357  0.00  0.00    +0.111 A 
ATOM      6  N   UNL     1      -4.419   3.509 -21.006  0.00  0.00    -0.260 NA
ATOM      7  C   UNL     1      -4.420   3.511 -22.307  0.00  0.00    +0.046 A 
ATOM      8  C   UNL     1      -5.545   3.578 -22.955  0.00  0.00    +0.066 C 
ATOM      9  C   UNL     1      -3.296   3.447 -22.957  0.00  0.00    +0.007 A 
ATOM     10  C   UNL     1      -3.297   3.450 -24.257  0.00  0.00    +0.059 A 
ATOM     11  C   UNL     1      -2.173   3.386 -24.908  0.00  0.00    +0.162 A 
ENDROOT
BRANCH   1  13
ATOM     12  C   UNL     1       1.098   2.652 -24.382  0.00  0.00    +0.277 C 
ATOM     13  O   UNL     1       0.075   3.255 -24.910  0.00  0.00    -0.491 OA
ENDBRANCH   1  13
BRANCH  11  14
ATOM     14  O   UNL     1      -2.174   3.388 -26.208  0.00  0.00    -0.491 OA
ATOM     15  C   UNL     1      -3.298   3.467 -26.857  0.00  0.00    +0.277 C 
ENDBRANCH  11  14
TORSDOF 2
ENDMDL
MODEL 4
REMARK VINA RESULT:    -6.912      2.559      5.026
REMARK INTER + INTRA:          -7.886
REMARK INTER:                  -7.699
REMARK INTRA:                  -0.187
REMARK UNBOUND:                -0.166
REMARK  Name = ZINC000001705987
REMARK  5 active torsions:
REMARK  status: ('A' for Active; 'I' for Inactive)
REMARK    1  A    between atoms: C_1  and  O_2
REMARK    2  A    between atoms: O_2  and  C_3
REMARK    3  A    between atoms: C_9  and  C_10
REMARK    4  A    between atoms: C_13  and  O_14
REMARK    5  A    between atoms: O_14  and  C_15
REMARK                            x       y       z     vdW  Elec       q    Type
REMARK                         _______ _______ _______ _____ _____    ______ ____
ROOT
ATOM      1  C   UNL     1      -3.633   3.275 -22.575  0.00  0.00    +0.162 A 
ATOM      2  C   UNL     1      -2.823   2.630 -21.787  0.00  0.00    +0.058 A 
ATOM      3  C   UNL     1      -1.595   2.413 -22.154  0.00  0.00    -0.011 A 
ATOM      4  C   UNL     1      -0.786   1.769 -21.368  0.00  0.00    +0.028 A 
ATOM      5  C   UNL     1       0.443   1.552 -21.735  0.00  0.00    +0.111 A 
ATOM      6  N   UNL     1       0.862   1.980 -22.889  0.00  0.00    -0.260 NA
ATOM      7  C   UNL     1       0.052   2.625 -23.676  0.00  0.00    +0.046 A 
ATOM      8  C   UNL     1       0.472   3.053 -24.829  0.00  0.00    +0.066 C 
ATOM      9  C   UNL     1      -1.176   2.842 -23.308  0.00  0.00    +0.007 A 
ATOM     10  C   UNL     1      -1.985   3.487 -24.095  0.00  0.00    +0.059 A 
ATOM     11  C   UNL     1      -3.214   3.704 -23.728  0.00  0.00    +0.162 A 
ENDROOT
BRANCH   1  13
ATOM     12  C   UNL     1      -5.476   2.629 -21.455  0.00  0.00    +0.277 C 
ATOM     13  O   UNL     1      -4.861   3.492 -22.208  0.00  0.00    -0.491 OA
ENDBRANCH   1  13
BRANCH  11  14
ATOM     14  O   UNL     1      -4.023   4.348 -24.515  0.00  0.00    -0.491 OA
ATOM     15  C   UNL     1      -4.389   3.821 -25.646  0.00  0.00    +0.277 C 
ENDBRANCH  11  14
TORSDOF 2
ENDMDL
MODEL 5
REMARK VINA RESULT:    -6.873      1.511      2.352
REMARK INTER + INTRA:          -7.842
REMARK INTER:                  -7.650
REMARK INTRA:                  -0.192
REMARK UNBOUND:                -0.166
REMARK  Name = ZINC000001705987
REMARK  5 active torsions:
REMARK  status: ('A' for Active; 'I' for Inactive)
REMARK    1  A    between atoms: C_1  and  O_2
REMARK    2  A    between atoms: O_2  and  C_3
REMARK    3  A    between atoms: C_9  and  C_10
REMARK    4  A    between atoms: C_13  and  O_14
REMARK    5  A    between atoms: O_14  and  C_15
REMARK                            x       y       z     vdW  Elec       q    Type
REMARK                         _______ _______ _______ _____ _____    ______ ____
ROOT
ATOM      1  C   UNL     1      -1.133   2.839 -22.799  0.00  0.00    +0.162 A 
ATOM      2  C   UNL     1      -1.147   2.936 -24.096  0.00  0.00    +0.058 A 
ATOM      3  C   UNL     1      -2.245   3.260 -24.712  0.00  0.00    -0.011 A 
ATOM      4  C   UNL     1      -2.259   3.357 -26.007  0.00  0.00    +0.028 A 
ATOM      5  C   UNL     1      -3.358   3.681 -26.624  0.00  0.00    +0.111 A 
ATOM      6  N   UNL     1      -4.442   3.907 -25.944  0.00  0.00    -0.260 NA
ATOM      7  C   UNL     1      -4.428   3.809 -24.647  0.00  0.00    +0.046 A 
ATOM      8  C   UNL     1      -5.513   4.035 -23.967  0.00  0.00    +0.066 C 
ATOM      9  C   UNL     1      -3.330   3.485 -24.031  0.00  0.00    +0.007 A 
ATOM     10  C   UNL     1      -3.316   3.388 -22.735  0.00  0.00    +0.059 A 
ATOM     11  C   UNL     1      -2.218   3.065 -22.119  0.00  0.00    +0.162 A 
ENDROOT
BRANCH   1  13
ATOM     12  C   UNL     1       1.113   2.696 -22.765  0.00  0.00    +0.277 C 
ATOM     13  O   UNL     1      -0.035   2.515 -22.183  0.00  0.00    -0.491 OA
ENDBRANCH   1  13
BRANCH  11  14
ATOM     14  O   UNL     1      -2.204   2.967 -20.823  0.00  0.00    -0.491 OA
ATOM     15  C   UNL     1      -3.005   3.700 -20.107  0.00  0.00    +0.277 C 
ENDBRANCH  11  14
TORSDOF 2
ENDMDL
MODEL 6
REMARK VINA RESULT:    -6.810      2.536      4.202
REMARK INTER + INTRA:          -7.772
REMARK INTER:                  -7.581
REMARK INTRA:                  -0.191
REMARK UNBOUND:                -0.166
REMARK  Name = ZINC000001705987
REMARK  5 active torsions:
REMARK  status: ('A' for Active; 'I' for Inactive)
REMARK    1  A    between atoms: C_1  and  O_2
REMARK    2  A    between atoms: O_2  and  C_3
REMARK    3  A    between atoms: C_9  and  C_10
REMARK    4  A    between atoms: C_13  and  O_14
REMARK    5  A    between atoms: O_14  and  C_15
REMARK                            x       y       z     vdW  Elec       q    Type
REMARK                         _______ _______ _______ _____ _____    ______ ____
ROOT
ATOM      1  C   UNL     1      -3.219   3.618 -23.883  0.00  0.00    +0.162 A 
ATOM      2  C   UNL     1      -2.150   3.667 -24.623  0.00  0.00    +0.058 A 
ATOM      3  C   UNL     1      -1.041   3.140 -24.198  0.00  0.00    -0.011 A 
ATOM      4  C   UNL     1       0.027   3.189 -24.936  0.00  0.00    +0.028 A 
ATOM      5  C   UNL     1       1.137   2.662 -24.511  0.00  0.00    +0.111 A 
ATOM      6  N   UNL     1       1.179   2.086 -23.347  0.00  0.00    -0.260 NA
ATOM      7  C   UNL     1       0.111   2.037 -22.607  0.00  0.00    +0.046 A 
ATOM      8  C   UNL     1       0.153   1.461 -21.442  0.00  0.00    +0.066 C 
ATOM      9  C   UNL     1      -0.999   2.564 -23.033  0.00  0.00    +0.007 A 
ATOM     10  C   UNL     1      -2.067   2.515 -22.293  0.00  0.00    +0.059 A 
ATOM     11  C   UNL     1      -3.177   3.042 -22.718  0.00  0.00    +0.162 A 
ENDROOT
BRANCH   1  13
ATOM     12  C   UNL     1      -4.900   3.679 -25.379  0.00  0.00    +0.277 C 
ATOM     13  O   UNL     1      -4.328   4.144 -24.308  0.00  0.00    -0.491 OA
ENDBRANCH   1  13
BRANCH  11  14
ATOM     14  O   UNL     1      -4.245   2.993 -21.978  0.00  0.00    -0.491 OA
ATOM     15  C   UNL     1      -4.243   2.299 -20.880  0.00  0.00    +0.277 C 
ENDBRANCH  11  14
TORSDOF 2
ENDMDL
MODEL 7
REMARK VINA RESULT:    -6.536      2.580      4.143
REMARK INTER + INTRA:          -7.466
REMARK INTER:                  -7.256
REMARK INTRA:                  -0.210
REMARK UNBOUND:                -0.166
REMARK  Name = ZINC000001705987
REMARK  5 active torsions:
REMARK  status: ('A' for Active; 'I' for Inactive)
REMARK    1  A    between atoms: C_1  and  O_2
REMARK    2  A    between atoms: O_2  and  C_3
REMARK    3  A    between atoms: C_9  and  C_10
REMARK    4  A    between atoms: C_13  and  O_14
REMARK    5  A    between atoms: O_14  and  C_15
REMARK                            x       y       z     vdW  Elec       q    Type
REMARK                         _______ _______ _______ _____ _____    ______ ____
ROOT
ATOM      1  C   UNL     1       1.915   1.620 -22.414  0.00  0.00    +0.162 A 
ATOM      2  C   UNL     1       0.776   1.325 -21.858  0.00  0.00    +0.058 A 
ATOM      3  C   UNL     1      -0.225   2.150 -21.951  0.00  0.00    -0.011 A 
ATOM      4  C   UNL     1      -1.362   1.856 -21.397  0.00  0.00    +0.028 A 
ATOM      5  C   UNL     1      -2.364   2.680 -21.489  0.00  0.00    +0.111 A 
ATOM      6  N   UNL     1      -2.227   3.799 -22.137  0.00  0.00    -0.260 NA
ATOM      7  C   UNL     1      -1.088   4.093 -22.692  0.00  0.00    +0.046 A 
ATOM      8  C   UNL     1      -0.952   5.212 -23.339  0.00  0.00    +0.066 C 
ATOM      9  C   UNL     1      -0.088   3.268 -22.599  0.00  0.00    +0.007 A 
ATOM     10  C   UNL     1       1.050   3.563 -23.154  0.00  0.00    +0.059 A 
ATOM     11  C   UNL     1       2.052   2.738 -23.061  0.00  0.00    +0.162 A 
ENDROOT
BRANCH   1  13
ATOM     12  C   UNL     1       3.421   0.516 -21.157  0.00  0.00    +0.277 C 
ATOM     13  O   UNL     1       2.915   0.795 -22.321  0.00  0.00    -0.491 OA
ENDBRANCH   1  13
BRANCH  11  14
ATOM     14  O   UNL     1       3.190   3.033 -23.617  0.00  0.00    -0.491 OA
ATOM     15  C   UNL     1       3.869   4.061 -23.201  0.00  0.00    +0.277 C 
ENDBRANCH  11  14
TORSDOF 2
ENDMDL
MODEL 8
REMARK VINA RESULT:    -6.484      2.797      5.452
REMARK INTER + INTRA:          -7.408
REMARK INTER:                  -7.242
REMARK INTRA:                  -0.166
REMARK UNBOUND:                -0.166
REMARK  Name = ZINC000001705987
REMARK  5 active torsions:
REMARK  status: ('A' for Active; 'I' for Inactive)
REMARK    1  A    between atoms: C_1  and  O_2
REMARK    2  A    between atoms: O_2  and  C_3
REMARK    3  A    between atoms: C_9  and  C_10
REMARK    4  A    between atoms: C_13  and  O_14
REMARK    5  A    between atoms: O_14  and  C_15
REMARK                            x       y       z     vdW  Elec       q    Type
REMARK                         _______ _______ _______ _____ _____    ______ ____
ROOT
ATOM      1  C   UNL     1      -1.756   2.362 -21.995  0.00  0.00    +0.162 A 
ATOM      2  C   UNL     1      -0.694   1.951 -21.367  0.00  0.00    +0.058 A 
ATOM      3  C   UNL     1       0.450   1.912 -21.981  0.00  0.00    -0.011 A 
ATOM      4  C   UNL     1       1.511   1.502 -21.354  0.00  0.00    +0.028 A 
ATOM      5  C   UNL     1       2.657   1.462 -21.968  0.00  0.00    +0.111 A 
ATOM      6  N   UNL     1       2.740   1.833 -23.211  0.00  0.00    -0.260 NA
ATOM      7  C   UNL     1       1.679   2.244 -23.840  0.00  0.00    +0.046 A 
ATOM      8  C   UNL     1       1.763   2.615 -25.083  0.00  0.00    +0.066 C 
ATOM      9  C   UNL     1       0.534   2.283 -23.224  0.00  0.00    +0.007 A 
ATOM     10  C   UNL     1      -0.527   2.694 -23.853  0.00  0.00    +0.059 A 
ATOM     11  C   UNL     1      -1.673   2.734 -23.238  0.00  0.00    +0.162 A 
ENDROOT
BRANCH   1  13
ATOM     12  C   UNL     1      -3.121   3.306 -20.473  0.00  0.00    +0.277 C 
ATOM     13  O   UNL     1      -2.901   2.402 -21.381  0.00  0.00    -0.491 OA
ENDBRANCH   1  13
BRANCH  11  14
ATOM     14  O   UNL     1      -2.734   3.144 -23.867  0.00  0.00    -0.491 OA
ATOM     15  C   UNL     1      -2.630   3.633 -25.067  0.00  0.00    +0.277 C 
ENDBRANCH  11  14
TORSDOF 2
ENDMDL
MODEL 9
REMARK VINA RESULT:    -6.440      3.061      4.075
REMARK INTER + INTRA:          -7.359
REMARK INTER:                  -7.146
REMARK INTRA:                  -0.213
REMARK UNBOUND:                -0.166
REMARK  Name = ZINC000001705987
REMARK  5 active torsions:
REMARK  status: ('A' for Active; 'I' for Inactive)
REMARK    1  A    between atoms: C_1  and  O_2
REMARK    2  A    between atoms: O_2  and  C_3
REMARK    3  A    between atoms: C_9  and  C_10
REMARK    4  A    between atoms: C_13  and  O_14
REMARK    5  A    between atoms: O_14  and  C_15
REMARK                            x       y       z     vdW  Elec       q    Type
REMARK                         _______ _______ _______ _____ _____    ______ ____
ROOT
ATOM      1  C   UNL     1       3.168   2.853 -23.408  0.00  0.00    +0.162 A 
ATOM      2  C   UNL     1       2.416   3.881 -23.668  0.00  0.00    +0.058 A 
ATOM      3  C   UNL     1       1.168   3.881 -23.306  0.00  0.00    -0.011 A 
ATOM      4  C   UNL     1       0.416   4.909 -23.565  0.00  0.00    +0.028 A 
ATOM      5  C   UNL     1      -0.833   4.909 -23.204  0.00  0.00    +0.111 A 
ATOM      6  N   UNL     1      -1.330   3.882 -22.582  0.00  0.00    -0.260 NA
ATOM      7  C   UNL     1      -0.578   2.853 -22.322  0.00  0.00    +0.046 A 
ATOM      8  C   UNL     1      -1.075   1.826 -21.700  0.00  0.00    +0.066 C 
ATOM      9  C   UNL     1       0.671   2.854 -22.684  0.00  0.00    +0.007 A 
ATOM     10  C   UNL     1       1.422   1.825 -22.424  0.00  0.00    +0.059 A 
ATOM     11  C   UNL     1       2.672   1.825 -22.786  0.00  0.00    +0.162 A 
ENDROOT
BRANCH   1  13
ATOM     12  C   UNL     1       5.229   3.752 -23.301  0.00  0.00    +0.277 C 
ATOM     13  O   UNL     1       4.417   2.852 -23.769  0.00  0.00    -0.491 OA
ENDBRANCH   1  13
BRANCH  11  14
ATOM     14  O   UNL     1       3.423   0.797 -22.526  0.00  0.00    -0.491 OA
ATOM     15  C   UNL     1       3.615   0.426 -21.294  0.00  0.00    +0.277 C 
ENDBRANCH  11  14
TORSDOF 2
ENDMDL
