MODEL 1
REMARK VINA RESULT:   -10.177      0.000      0.000
REMARK INTER + INTRA:         -11.846
REMARK INTER:                 -11.606
REMARK INTRA:                  -0.240
REMARK UNBOUND:                -0.181
REMARK  Name = COC1=C[C@@]23CCN(C)[C@@H](Cc4ccc(OC)c(O)c42)C3=CC1                   ZINC000096316411
REMARK  6 active torsions:
REMARK  status: ('A' for Active; 'I' for Inactive)
REMARK    1  A    between atoms: C_1  and  O_2
REMARK    2  A    between atoms: O_2  and  C_3
REMARK    3  A    between atoms: N_8  and  C_9
REMARK    4  A    between atoms: C_15  and  O_16
REMARK    5  A    between atoms: O_16  and  C_17
REMARK    6  A    between atoms: C_18  and  O_19
REMARK                            x       y       z     vdW  Elec       q    Type
REMARK                         _______ _______ _______ _____ _____    ______ ____
ROOT
ATOM      1  C   UNL     1      -4.065   3.897 -25.416  0.00  0.00    +0.098 C 
ATOM      2  C   UNL     1      -2.941   3.453 -24.940  0.00  0.00    +0.030 C 
ATOM      3  C   UNL     1      -2.840   3.171 -23.712  0.00  0.00    +0.052 C 
ATOM      4  C   UNL     1      -2.046   2.842 -23.299  0.00  0.00    +0.071 C 
ATOM      5  C   UNL     1      -2.047   2.598 -22.102  0.00  0.00    +0.133 C 
ATOM      6  N   UNL     1      -2.951   2.721 -21.341  0.00  0.00    +0.239 N 
ATOM      7  H   UNL     1      -2.012   2.387 -21.122  0.00  0.00    +0.204 HD
ATOM      8  C   UNL     1      -3.746   3.011 -21.561  0.00  0.00    +0.096 C 
ATOM      9  C   UNL     1      -2.375   2.450 -20.884  0.00  0.00    +0.094 C 
ATOM     10  C   UNL     1      -1.400   2.293 -21.584  0.00  0.00    -0.034 A 
ATOM     11  C   UNL     1      -0.291   1.856 -21.117  0.00  0.00    +0.008 A 
ATOM     12  C   UNL     1       0.727   1.703 -21.906  0.00  0.00    +0.050 A 
ATOM     13  C   UNL     1       0.632   1.989 -23.163  0.00  0.00    +0.162 A 
ATOM     14  C   UNL     1      -0.477   2.427 -23.634  0.00  0.00    +0.163 A 
ATOM     15  C   UNL     1      -4.064   2.846 -20.272  0.00  0.00    +0.191 C 
ATOM     16  C   UNL     1      -3.977   3.346 -22.853  0.00  0.00    -0.011 C 
ATOM     17  C   UNL     1      -5.056   3.781 -23.352  0.00  0.00    -0.013 C 
ATOM     18  C   UNL     1      -1.495   2.582 -22.855  0.00  0.00    +0.015 A 
ATOM     19  C   UNL     1      -5.113   4.059 -24.629  0.00  0.00    +0.100 C 
ENDROOT
BRANCH   1  21
ATOM     20  C   UNL     1      -3.300   3.483 -27.569  0.00  0.00    +0.276 C 
ATOM     21  O   UNL     1      -3.947   4.129 -26.732  0.00  0.00    -0.499 OA
ENDBRANCH   1  21
BRANCH  14  22
ATOM     22  O   UNL     1      -0.591   2.720 -24.895  0.00  0.00    -0.503 OA
ATOM     23  H   UNL     1      -1.331   3.208 -25.198  0.00  0.00    +0.292 HD
ENDBRANCH  14  22
BRANCH  13  24
ATOM     24  O   UNL     1       1.559   1.903 -24.145  0.00  0.00    -0.491 OA
ATOM     25  C   UNL     1       2.762   1.605 -24.046  0.00  0.00    +0.277 C 
ENDBRANCH  13  24
TORSDOF 3
ENDMDL
MODEL 2
REMARK VINA RESULT:    -9.898      0.625      4.457
REMARK INTER + INTRA:         -11.526
REMARK INTER:                 -11.315
REMARK INTRA:                  -0.212
REMARK UNBOUND:                -0.181
REMARK  Name = COC1=C[C@@]23CCN(C)[C@@H](Cc4ccc(OC)c(O)c42)C3=CC1                   ZINC000096316411
REMARK  6 active torsions:
REMARK  status: ('A' for Active; 'I' for Inactive)
REMARK    1  A    between atoms: C_1  and  O_2
REMARK    2  A    between atoms: O_2  and  C_3
REMARK    3  A    between atoms: N_8  and  C_9
REMARK    4  A    between atoms: C_15  and  O_16
REMARK    5  A    between atoms: O_16  and  C_17
REMARK    6  A    between atoms: C_18  and  O_19
REMARK                            x       y       z     vdW  Elec       q    Type
REMARK                         _______ _______ _______ _____ _____    ______ ____
ROOT
ATOM      1  C   UNL     1       0.787   1.816 -22.896  0.00  0.00    +0.098 C 
ATOM      2  C   UNL     1      -0.173   2.263 -23.646  0.00  0.00    +0.030 C 
ATOM      3  C   UNL     1      -1.303   2.525 -23.141  0.00  0.00    +0.052 C 
ATOM      4  C   UNL     1      -2.049   2.855 -23.635  0.00  0.00    +0.071 C 
ATOM      5  C   UNL     1      -3.102   3.079 -23.056  0.00  0.00    +0.133 C 
ATOM      6  N   UNL     1      -3.335   2.933 -21.900  0.00  0.00    +0.239 N 
ATOM      7  H   UNL     1      -3.981   3.273 -22.613  0.00  0.00    +0.204 HD
ATOM      8  C   UNL     1      -2.758   2.639 -21.313  0.00  0.00    +0.096 C 
ATOM      9  C   UNL     1      -4.015   3.202 -22.182  0.00  0.00    +0.094 C 
ATOM     10  C   UNL     1      -3.869   3.382 -23.370  0.00  0.00    -0.034 A 
ATOM     11  C   UNL     1      -4.815   3.822 -24.112  0.00  0.00    +0.008 A 
ATOM     12  C   UNL     1      -4.612   3.999 -25.381  0.00  0.00    +0.050 A 
ATOM     13  C   UNL     1      -3.460   3.734 -25.905  0.00  0.00    +0.162 A 
ATOM     14  C   UNL     1      -2.512   3.293 -25.165  0.00  0.00    +0.163 A 
ATOM     15  C   UNL     1      -3.738   2.778 -20.414  0.00  0.00    +0.191 C 
ATOM     16  C   UNL     1      -1.510   2.324 -21.736  0.00  0.00    -0.011 C 
ATOM     17  C   UNL     1      -0.550   1.887 -21.035  0.00  0.00    -0.013 C 
ATOM     18  C   UNL     1      -2.705   3.114 -23.901  0.00  0.00    +0.015 A 
ATOM     19  C   UNL     1       0.601   1.630 -21.602  0.00  0.00    +0.100 C 
ENDROOT
BRANCH   1  21
ATOM     20  C   UNL     1       2.254   2.213 -24.652  0.00  0.00    +0.276 C 
ATOM     21  O   UNL     1       1.888   1.608 -23.634  0.00  0.00    -0.499 OA
ENDBRANCH   1  21
BRANCH  14  22
ATOM     22  O   UNL     1      -1.347   3.020 -25.674  0.00  0.00    -0.503 OA
ATOM     23  H   UNL     1      -0.985   3.574 -26.338  0.00  0.00    +0.292 HD
ENDBRANCH  14  22
BRANCH  13  24
ATOM     24  O   UNL     1      -3.045   3.846 -27.188  0.00  0.00    -0.491 OA
ATOM     25  C   UNL     1      -3.587   3.405 -28.216  0.00  0.00    +0.277 C 
ENDBRANCH  13  24
TORSDOF 3
ENDMDL
MODEL 3
REMARK VINA RESULT:    -9.080      2.387      6.023
REMARK INTER + INTRA:         -10.589
REMARK INTER:                 -10.402
REMARK INTRA:                  -0.187
REMARK UNBOUND:                -0.181
REMARK  Name = COC1=C[C@@]23CCN(C)[C@@H](Cc4ccc(OC)c(O)c42)C3=CC1                   ZINC000096316411
REMARK  6 active torsions:
REMARK  status: ('A' for Active; 'I' for Inactive)
REMARK    1  A    between atoms: C_1  and  O_2
REMARK    2  A    between atoms: O_2  and  C_3
REMARK    3  A    between atoms: N_8  and  C_9
REMARK    4  A    between atoms: C_15  and  O_16
REMARK    5  A    between atoms: O_16  and  C_17
REMARK    6  A    between atoms: C_18  and  O_19
REMARK                            x       y       z     vdW  Elec       q    Type
REMARK                         _______ _______ _______ _____ _____    ______ ____
ROOT
ATOM      1  C   UNL     1       2.743   1.224 -22.022  0.00  0.00    +0.098 C 
ATOM      2  C   UNL     1       1.474   1.498 -22.018  0.00  0.00    +0.030 C 
ATOM      3  C   UNL     1       0.977   2.213 -22.936  0.00  0.00    +0.052 C 
ATOM      4  C   UNL     1       0.056   2.451 -22.992  0.00  0.00    +0.071 C 
ATOM      5  C   UNL     1      -0.330   3.148 -23.919  0.00  0.00    +0.133 C 
ATOM      6  N   UNL     1       0.322   3.592 -24.808  0.00  0.00    +0.239 N 
ATOM      7  H   UNL     1      -0.681   3.718 -24.666  0.00  0.00    +0.204 HD
ATOM      8  C   UNL     1       1.181   3.465 -24.901  0.00  0.00    +0.096 C 
ATOM      9  C   UNL     1      -0.398   3.857 -24.971  0.00  0.00    +0.094 C 
ATOM     10  C   UNL     1      -1.139   3.448 -24.105  0.00  0.00    -0.034 A 
ATOM     11  C   UNL     1      -2.391   3.718 -24.100  0.00  0.00    +0.008 A 
ATOM     12  C   UNL     1      -3.147   3.257 -23.152  0.00  0.00    +0.050 A 
ATOM     13  C   UNL     1      -2.646   2.526 -22.210  0.00  0.00    +0.162 A 
ATOM     14  C   UNL     1      -1.394   2.254 -22.213  0.00  0.00    +0.163 A 
ATOM     15  C   UNL     1       1.081   4.215 -26.004  0.00  0.00    +0.191 C 
ATOM     16  C   UNL     1       1.828   2.714 -23.977  0.00  0.00    -0.011 C 
ATOM     17  C   UNL     1       3.060   2.426 -23.949  0.00  0.00    -0.013 C 
ATOM     18  C   UNL     1      -0.634   2.709 -23.153  0.00  0.00    +0.015 A 
ATOM     19  C   UNL     1       3.529   1.683 -22.979  0.00  0.00    +0.100 C 
ENDROOT
BRANCH   1  21
ATOM     20  C   UNL     1       4.175   0.173 -20.528  0.00  0.00    +0.276 C 
ATOM     21  O   UNL     1       3.051   0.458 -20.965  0.00  0.00    -0.499 OA
ENDBRANCH   1  21
BRANCH  14  22
ATOM     22  O   UNL     1      -0.873   1.521 -21.275  0.00  0.00    -0.503 OA
ATOM     23  H   UNL     1       0.058   1.450 -21.197  0.00  0.00    +0.292 HD
ENDBRANCH  14  22
BRANCH  13  24
ATOM     24  O   UNL     1      -3.250   1.953 -21.143  0.00  0.00    -0.491 OA
ATOM     25  C   UNL     1      -4.405   2.134 -20.721  0.00  0.00    +0.277 C 
ENDBRANCH  13  24
TORSDOF 3
ENDMDL
MODEL 4
REMARK VINA RESULT:    -8.491      2.078      5.147
REMARK INTER + INTRA:          -9.913
REMARK INTER:                 -10.576
REMARK INTRA:                   0.663
REMARK UNBOUND:                -0.181
REMARK  Name = COC1=C[C@@]23CCN(C)[C@@H](Cc4ccc(OC)c(O)c42)C3=CC1                   ZINC000096316411
REMARK  6 active torsions:
REMARK  status: ('A' for Active; 'I' for Inactive)
REMARK    1  A    between atoms: C_1  and  O_2
REMARK    2  A    between atoms: O_2  and  C_3
REMARK    3  A    between atoms: N_8  and  C_9
REMARK    4  A    between atoms: C_15  and  O_16
REMARK    5  A    between atoms: O_16  and  C_17
REMARK    6  A    between atoms: C_18  and  O_19
REMARK                            x       y       z     vdW  Elec       q    Type
REMARK                         _______ _______ _______ _____ _____    ______ ____
ROOT
ATOM      1  C   UNL     1       1.086   3.070 -23.742  0.00  0.00    +0.098 C 
ATOM      2  C   UNL     1      -0.085   3.100 -23.182  0.00  0.00    +0.030 C 
ATOM      3  C   UNL     1      -1.121   3.267 -23.888  0.00  0.00    +0.052 C 
ATOM      4  C   UNL     1      -2.008   3.299 -23.540  0.00  0.00    +0.071 C 
ATOM      5  C   UNL     1      -2.948   3.465 -24.304  0.00  0.00    +0.133 C 
ATOM      6  N   UNL     1      -2.903   3.600 -25.484  0.00  0.00    +0.239 N 
ATOM      7  H   UNL     1      -3.742   3.600 -24.902  0.00  0.00    +0.204 HD
ATOM      8  C   UNL     1      -2.167   3.595 -25.954  0.00  0.00    +0.096 C 
ATOM      9  C   UNL     1      -3.671   3.645 -25.332  0.00  0.00    +0.094 C 
ATOM     10  C   UNL     1      -3.813   3.516 -24.137  0.00  0.00    -0.034 A 
ATOM     11  C   UNL     1      -4.967   3.545 -23.583  0.00  0.00    +0.008 A 
ATOM     12  C   UNL     1      -5.070   3.403 -22.298  0.00  0.00    +0.050 A 
ATOM     13  C   UNL     1      -4.015   3.232 -21.570  0.00  0.00    +0.162 A 
ATOM     14  C   UNL     1      -2.859   3.202 -22.122  0.00  0.00    +0.163 A 
ATOM     15  C   UNL     1      -2.953   3.784 -27.020  0.00  0.00    +0.191 C 
ATOM     16  C   UNL     1      -0.989   3.423 -25.308  0.00  0.00    -0.011 C 
ATOM     17  C   UNL     1       0.169   3.388 -25.820  0.00  0.00    -0.013 C 
ATOM     18  C   UNL     1      -2.748   3.343 -23.400  0.00  0.00    +0.015 A 
ATOM     19  C   UNL     1       1.212   3.213 -25.050  0.00  0.00    +0.100 C 
ENDROOT
BRANCH   1  21
ATOM     20  C   UNL     1       3.260   3.041 -22.928  0.00  0.00    +0.276 C 
ATOM     21  O   UNL     1       2.036   2.884 -22.813  0.00  0.00    -0.499 OA
ENDBRANCH   1  21
BRANCH  14  22
ATOM     22  O   UNL     1      -1.788   3.031 -21.406  0.00  0.00    -0.503 OA
ATOM     23  H   UNL     1      -1.327   3.773 -21.068  0.00  0.00    +0.292 HD
ENDBRANCH  14  22
BRANCH  13  24
ATOM     24  O   UNL     1      -3.903   3.066 -20.231  0.00  0.00    -0.491 OA
ATOM     25  C   UNL     1      -3.283   3.770 -19.415  0.00  0.00    +0.277 C 
ENDBRANCH  13  24
TORSDOF 3
ENDMDL
MODEL 5
REMARK VINA RESULT:    -7.916      4.672      7.717
REMARK INTER + INTRA:          -9.254
REMARK INTER:                  -9.058
REMARK INTRA:                  -0.196
REMARK UNBOUND:                -0.181
REMARK  Name = COC1=C[C@@]23CCN(C)[C@@H](Cc4ccc(OC)c(O)c42)C3=CC1                   ZINC000096316411
REMARK  6 active torsions:
REMARK  status: ('A' for Active; 'I' for Inactive)
REMARK    1  A    between atoms: C_1  and  O_2
REMARK    2  A    between atoms: O_2  and  C_3
REMARK    3  A    between atoms: N_8  and  C_9
REMARK    4  A    between atoms: C_15  and  O_16
REMARK    5  A    between atoms: O_16  and  C_17
REMARK    6  A    between atoms: C_18  and  O_19
REMARK                            x       y       z     vdW  Elec       q    Type
REMARK                         _______ _______ _______ _____ _____    ______ ____
ROOT
ATOM      1  C   UNL     1       4.586   7.579 -21.968  0.00  0.00    +0.098 C 
ATOM      2  C   UNL     1       3.731   6.748 -22.481  0.00  0.00    +0.030 C 
ATOM      3  C   UNL     1       4.092   5.577 -22.790  0.00  0.00    +0.052 C 
ATOM      4  C   UNL     1       3.515   4.919 -23.169  0.00  0.00    +0.071 C 
ATOM      5  C   UNL     1       3.958   3.811 -23.435  0.00  0.00    +0.133 C 
ATOM      6  N   UNL     1       5.070   3.422 -23.276  0.00  0.00    +0.239 N 
ATOM      7  H   UNL     1       4.289   2.892 -23.665  0.00  0.00    +0.204 HD
ATOM      8  C   UNL     1       5.718   3.901 -22.939  0.00  0.00    +0.096 C 
ATOM      9  C   UNL     1       4.709   2.798 -23.586  0.00  0.00    +0.094 C 
ATOM     10  C   UNL     1       3.556   3.107 -23.784  0.00  0.00    -0.034 A 
ATOM     11  C   UNL     1       2.710   2.289 -24.290  0.00  0.00    +0.008 A 
ATOM     12  C   UNL     1       1.484   2.665 -24.484  0.00  0.00    +0.050 A 
ATOM     13  C   UNL     1       1.107   3.862 -24.170  0.00  0.00    +0.162 A 
ATOM     14  C   UNL     1       1.951   4.682 -23.664  0.00  0.00    +0.163 A 
ATOM     15  C   UNL     1       6.486   2.820 -23.109  0.00  0.00    +0.191 C 
ATOM     16  C   UNL     1       5.452   5.177 -22.568  0.00  0.00    -0.011 C 
ATOM     17  C   UNL     1       6.259   6.014 -22.067  0.00  0.00    -0.013 C 
ATOM     18  C   UNL     1       3.174   4.316 -23.468  0.00  0.00    +0.015 A 
ATOM     19  C   UNL     1       5.839   7.215 -21.763  0.00  0.00    +0.100 C 
ENDROOT
BRANCH   1  21
ATOM     20  C   UNL     1       4.025   9.790 -22.401  0.00  0.00    +0.276 C 
ATOM     21  O   UNL     1       3.992   8.756 -21.719  0.00  0.00    -0.499 OA
ENDBRANCH   1  21
BRANCH  14  22
ATOM     22  O   UNL     1       1.590   5.889 -23.343  0.00  0.00    -0.503 OA
ATOM     23  H   UNL     1       2.027   6.340 -22.647  0.00  0.00    +0.292 HD
ENDBRANCH  14  22
BRANCH  13  24
ATOM     24  O   UNL     1      -0.107   4.447 -24.289  0.00  0.00    -0.491 OA
ATOM     25  C   UNL     1      -1.227   3.908 -24.289  0.00  0.00    +0.277 C 
ENDBRANCH  13  24
TORSDOF 3
ENDMDL
MODEL 6
REMARK VINA RESULT:    -7.454      3.722      6.129
REMARK INTER + INTRA:          -8.724
REMARK INTER:                  -8.529
REMARK INTRA:                  -0.195
REMARK UNBOUND:                -0.181
REMARK  Name = COC1=C[C@@]23CCN(C)[C@@H](Cc4ccc(OC)c(O)c42)C3=CC1                   ZINC000096316411
REMARK  6 active torsions:
REMARK  status: ('A' for Active; 'I' for Inactive)
REMARK    1  A    between atoms: C_1  and  O_2
REMARK    2  A    between atoms: O_2  and  C_3
REMARK    3  A    between atoms: N_8  and  C_9
REMARK    4  A    between atoms: C_15  and  O_16
REMARK    5  A    between atoms: O_16  and  C_17
REMARK    6  A    between atoms: C_18  and  O_19
REMARK                            x       y       z     vdW  Elec       q    Type
REMARK                         _______ _______ _______ _____ _____    ______ ____
ROOT
ATOM      1  C   UNL     1      -0.201   4.318 -23.208  0.00  0.00    +0.098 C 
ATOM      2  C   UNL     1       1.028   4.696 -23.035  0.00  0.00    +0.030 C 
ATOM      3  C   UNL     1       1.979   3.925 -23.351  0.00  0.00    +0.052 C 
ATOM      4  C   UNL     1       2.902   4.141 -23.250  0.00  0.00    +0.071 C 
ATOM      5  C   UNL     1       3.751   3.328 -23.585  0.00  0.00    +0.133 C 
ATOM      6  N   UNL     1       3.572   2.246 -24.045  0.00  0.00    +0.239 N 
ATOM      7  H   UNL     1       4.473   2.684 -23.850  0.00  0.00    +0.204 HD
ATOM      8  C   UNL     1       2.785   1.900 -24.200  0.00  0.00    +0.096 C 
ATOM      9  C   UNL     1       4.353   2.296 -24.015  0.00  0.00    +0.094 C 
ATOM     10  C   UNL     1       4.631   3.380 -23.553  0.00  0.00    -0.034 A 
ATOM     11  C   UNL     1       5.844   3.755 -23.381  0.00  0.00    +0.008 A 
ATOM     12  C   UNL     1       6.093   4.926 -22.883  0.00  0.00    +0.050 A 
ATOM     13  C   UNL     1       5.126   5.720 -22.557  0.00  0.00    +0.162 A 
ATOM     14  C   UNL     1       3.912   5.347 -22.728  0.00  0.00    +0.163 A 
ATOM     15  C   UNL     1       3.445   0.827 -24.647  0.00  0.00    +0.191 C 
ATOM     16  C   UNL     1       1.685   2.633 -23.902  0.00  0.00    -0.011 C 
ATOM     17  C   UNL     1       0.475   2.298 -24.056  0.00  0.00    -0.013 C 
ATOM     18  C   UNL     1       3.655   4.183 -23.224  0.00  0.00    +0.015 A 
ATOM     19  C   UNL     1      -0.476   3.129 -23.715  0.00  0.00    +0.100 C 
ENDROOT
BRANCH   1  21
ATOM     20  C   UNL     1      -1.754   5.309 -21.795  0.00  0.00    +0.276 C 
ATOM     21  O   UNL     1      -1.041   5.285 -22.808  0.00  0.00    -0.499 OA
ENDBRANCH   1  21
BRANCH  14  22
ATOM     22  O   UNL     1       2.927   6.132 -22.406  0.00  0.00    -0.503 OA
ATOM     23  H   UNL     1       3.028   6.747 -21.706  0.00  0.00    +0.292 HD
ENDBRANCH  14  22
BRANCH  13  24
ATOM     24  O   UNL     1       5.167   6.965 -22.029  0.00  0.00    -0.491 OA
ATOM     25  C   UNL     1       6.079   7.495 -21.371  0.00  0.00    +0.277 C 
ENDBRANCH  13  24
TORSDOF 3
ENDMDL
MODEL 7
REMARK VINA RESULT:    -7.253      3.511      7.238
REMARK INTER + INTRA:          -8.494
REMARK INTER:                  -8.310
REMARK INTRA:                  -0.184
REMARK UNBOUND:                -0.181
REMARK  Name = COC1=C[C@@]23CCN(C)[C@@H](Cc4ccc(OC)c(O)c42)C3=CC1                   ZINC000096316411
REMARK  6 active torsions:
REMARK  status: ('A' for Active; 'I' for Inactive)
REMARK    1  A    between atoms: C_1  and  O_2
REMARK    2  A    between atoms: O_2  and  C_3
REMARK    3  A    between atoms: N_8  and  C_9
REMARK    4  A    between atoms: C_15  and  O_16
REMARK    5  A    between atoms: O_16  and  C_17
REMARK    6  A    between atoms: C_18  and  O_19
REMARK                            x       y       z     vdW  Elec       q    Type
REMARK                         _______ _______ _______ _____ _____    ______ ____
ROOT
ATOM      1  C   UNL     1       6.069   4.348 -22.956  0.00  0.00    +0.098 C 
ATOM      2  C   UNL     1       4.784   4.195 -23.047  0.00  0.00    +0.030 C 
ATOM      3  C   UNL     1       4.224   3.198 -22.507  0.00  0.00    +0.052 C 
ATOM      4  C   UNL     1       3.287   3.026 -22.536  0.00  0.00    +0.071 C 
ATOM      5  C   UNL     1       2.839   2.033 -21.982  0.00  0.00    +0.133 C 
ATOM      6  N   UNL     1       3.446   1.208 -21.379  0.00  0.00    +0.239 N 
ATOM      7  H   UNL     1       2.438   1.227 -21.538  0.00  0.00    +0.204 HD
ATOM      8  C   UNL     1       4.312   1.220 -21.260  0.00  0.00    +0.096 C 
ATOM      9  C   UNL     1       2.707   0.953 -21.327  0.00  0.00    +0.094 C 
ATOM     10  C   UNL     1       2.008   1.742 -21.922  0.00  0.00    -0.034 A 
ATOM     11  C   UNL     1       0.739   1.593 -22.013  0.00  0.00    +0.008 A 
ATOM     12  C   UNL     1       0.031   2.465 -22.661  0.00  0.00    +0.050 A 
ATOM     13  C   UNL     1       0.596   3.487 -23.216  0.00  0.00    +0.162 A 
ATOM     14  C   UNL     1       1.865   3.639 -23.126  0.00  0.00    +0.163 A 
ATOM     15  C   UNL     1       4.143   0.084 -20.576  0.00  0.00    +0.191 C 
ATOM     16  C   UNL     1       5.023   2.242 -21.794  0.00  0.00    -0.011 C 
ATOM     17  C   UNL     1       6.274   2.424 -21.726  0.00  0.00    -0.013 C 
ATOM     18  C   UNL     1       2.578   2.776 -22.483  0.00  0.00    +0.015 A 
ATOM     19  C   UNL     1       6.808   3.471 -22.301  0.00  0.00    +0.100 C 
ENDROOT
BRANCH   1  21
ATOM     20  C   UNL     1       7.591   5.813 -23.920  0.00  0.00    +0.276 C 
ATOM     21  O   UNL     1       6.446   5.465 -23.598  0.00  0.00    -0.499 OA
ENDBRANCH   1  21
BRANCH  14  22
ATOM     22  O   UNL     1       2.449   4.661 -23.678  0.00  0.00    -0.503 OA
ATOM     23  H   UNL     1       2.734   5.380 -23.149  0.00  0.00    +0.292 HD
ENDBRANCH  14  22
BRANCH  13  24
ATOM     24  O   UNL     1       0.048   4.500 -23.928  0.00  0.00    -0.491 OA
ATOM     25  C   UNL     1      -1.077   5.012 -23.800  0.00  0.00    +0.277 C 
ENDBRANCH  13  24
TORSDOF 3
ENDMDL
