MODEL 1
REMARK VINA RESULT:   -10.324      0.000      0.000
REMARK INTER + INTRA:         -10.324
REMARK INTER:                 -10.324
REMARK INTRA:                   0.000
REMARK UNBOUND:                 0.000
REMARK  Name = CC1=CCC[C@@]23O[C@@H]2[C@@H](OC3=O)c2c(C)coc2C1                      ZINC000822218737
REMARK  2 active torsions:
REMARK  status: ('A' for Active; 'I' for Inactive)
REMARK    1  A    between atoms: C_1  and  C_2
REMARK    2  A    between atoms: C_14  and  C_15
REMARK                            x       y       z     vdW  Elec       q    Type
REMARK                         _______ _______ _______ _____ _____    ______ ____
ROOT
ATOM      1  C   UNL     1      -3.341   2.306 -20.999  0.00  0.00    +0.039 C 
ATOM      2  C   UNL     1      -3.212   2.844 -22.164  0.00  0.00    -0.069 C 
ATOM      3  C   UNL     1      -4.508   2.809 -21.635  0.00  0.00    -0.027 C 
ATOM      4  C   UNL     1      -5.606   3.386 -22.449  0.00  0.00    +0.030 C 
ATOM      5  C   UNL     1      -5.264   3.920 -23.680  0.00  0.00    +0.053 C 
ATOM      6  C   UNL     1      -4.132   3.757 -23.740  0.00  0.00    +0.196 C 
ATOM      7  O   UNL     1      -4.317   3.230 -22.579  0.00  0.00    -0.349 OA
ATOM      8  C   UNL     1      -3.691   4.220 -24.859  0.00  0.00    +0.343 C 
ATOM      9  O   UNL     1      -4.398   4.781 -25.778  0.00  0.00    -0.247 OA
ATOM     10  O   UNL     1      -2.416   4.022 -24.896  0.00  0.00    -0.452 OA
ATOM     11  C   UNL     1      -2.070   3.437 -23.802  0.00  0.00    +0.242 C 
ATOM     12  C   UNL     1      -1.103   3.106 -23.452  0.00  0.00    +0.039 A 
ATOM     13  C   UNL     1       0.040   3.195 -24.042  0.00  0.00    -0.006 A 
ATOM     14  C   UNL     1       0.931   2.674 -23.270  0.00  0.00    +0.199 A 
ATOM     15  O   UNL     1       0.336   2.260 -22.201  0.00  0.00    -0.467 OA
ATOM     16  C   UNL     1       0.244   3.720 -25.205  0.00  0.00    +0.047 C 
ATOM     17  C   UNL     1      -0.917   2.526 -22.311  0.00  0.00    +0.116 A 
ATOM     18  C   UNL     1      -3.136   3.274 -23.087  0.00  0.00    +0.208 C 
ATOM     19  C   UNL     1      -2.058   2.359 -21.563  0.00  0.00    +0.105 C 
ENDROOT
TORSDOF 0
ENDMDL
MODEL 2
REMARK VINA RESULT:   -10.174      1.200      4.968
REMARK INTER + INTRA:         -10.174
REMARK INTER:                 -10.174
REMARK INTRA:                   0.000
REMARK UNBOUND:                 0.000
REMARK  Name = CC1=CCC[C@@]23O[C@@H]2[C@@H](OC3=O)c2c(C)coc2C1                      ZINC000822218737
REMARK  2 active torsions:
REMARK  status: ('A' for Active; 'I' for Inactive)
REMARK    1  A    between atoms: C_1  and  C_2
REMARK    2  A    between atoms: C_14  and  C_15
REMARK                            x       y       z     vdW  Elec       q    Type
REMARK                         _______ _______ _______ _____ _____    ______ ____
ROOT
ATOM      1  C   UNL     1      -1.236   3.675 -25.287  0.00  0.00    +0.039 C 
ATOM      2  C   UNL     1      -1.231   3.155 -24.106  0.00  0.00    -0.069 C 
ATOM      3  C   UNL     1      -0.007   3.167 -24.787  0.00  0.00    -0.027 C 
ATOM      4  C   UNL     1       1.175   2.588 -24.100  0.00  0.00    +0.030 C 
ATOM      5  C   UNL     1       0.977   2.076 -22.829  0.00  0.00    +0.053 C 
ATOM      6  C   UNL     1      -0.139   2.254 -22.637  0.00  0.00    +0.196 C 
ATOM      7  O   UNL     1      -0.088   2.761 -23.820  0.00  0.00    -0.349 OA
ATOM      8  C   UNL     1      -0.447   1.812 -21.467  0.00  0.00    +0.343 C 
ATOM      9  O   UNL     1       0.358   1.255 -20.629  0.00  0.00    -0.247 OA
ATOM     10  O   UNL     1      -1.707   2.026 -21.281  0.00  0.00    -0.452 OA
ATOM     11  C   UNL     1      -2.176   2.599 -22.335  0.00  0.00    +0.242 C 
ATOM     12  C   UNL     1      -3.174   2.937 -22.572  0.00  0.00    +0.039 A 
ATOM     13  C   UNL     1      -4.239   2.869 -21.849  0.00  0.00    -0.006 A 
ATOM     14  C   UNL     1      -5.211   3.390 -22.517  0.00  0.00    +0.199 A 
ATOM     15  O   UNL     1      -4.743   3.781 -23.657  0.00  0.00    -0.467 OA
ATOM     16  C   UNL     1      -4.308   2.364 -20.662  0.00  0.00    +0.047 C 
ATOM     17  C   UNL     1      -3.488   3.503 -23.692  0.00  0.00    +0.116 A 
ATOM     18  C   UNL     1      -1.201   2.739 -23.174  0.00  0.00    +0.208 C 
ATOM     19  C   UNL     1      -2.443   3.645 -24.574  0.00  0.00    +0.105 C 
ENDROOT
TORSDOF 0
ENDMDL
MODEL 3
REMARK VINA RESULT:   -10.141      1.265      2.880
REMARK INTER + INTRA:         -10.141
REMARK INTER:                 -10.141
REMARK INTRA:                   0.000
REMARK UNBOUND:                 0.000
REMARK  Name = CC1=CCC[C@@]23O[C@@H]2[C@@H](OC3=O)c2c(C)coc2C1                      ZINC000822218737
REMARK  2 active torsions:
REMARK  status: ('A' for Active; 'I' for Inactive)
REMARK    1  A    between atoms: C_1  and  C_2
REMARK    2  A    between atoms: C_14  and  C_15
REMARK                            x       y       z     vdW  Elec       q    Type
REMARK                         _______ _______ _______ _____ _____    ______ ____
ROOT
ATOM      1  C   UNL     1      -3.210   3.999 -25.308  0.00  0.00    +0.039 C 
ATOM      2  C   UNL     1      -3.116   3.502 -24.121  0.00  0.00    -0.069 C 
ATOM      3  C   UNL     1      -4.385   3.951 -24.510  0.00  0.00    -0.027 C 
ATOM      4  C   UNL     1      -5.497   3.819 -23.537  0.00  0.00    +0.030 C 
ATOM      5  C   UNL     1      -5.194   3.257 -22.308  0.00  0.00    +0.053 C 
ATOM      6  C   UNL     1      -4.074   3.028 -22.383  0.00  0.00    +0.196 C 
ATOM      7  O   UNL     1      -4.223   3.533 -23.559  0.00  0.00    -0.349 OA
ATOM      8  C   UNL     1      -3.671   2.495 -21.282  0.00  0.00    +0.343 C 
ATOM      9  O   UNL     1      -4.399   2.249 -20.248  0.00  0.00    -0.247 OA
ATOM     10  O   UNL     1      -2.409   2.249 -21.399  0.00  0.00    -0.452 OA
ATOM     11  C   UNL     1      -2.033   2.631 -22.570  0.00  0.00    +0.242 C 
ATOM     12  C   UNL     1      -1.065   2.598 -23.048  0.00  0.00    +0.039 A 
ATOM     13  C   UNL     1       0.049   2.153 -22.578  0.00  0.00    -0.006 A 
ATOM     14  C   UNL     1       0.955   2.305 -23.483  0.00  0.00    +0.199 A 
ATOM     15  O   UNL     1       0.397   2.847 -24.514  0.00  0.00    -0.467 OA
ATOM     16  C   UNL     1       0.217   1.644 -21.403  0.00  0.00    +0.047 C 
ATOM     17  C   UNL     1      -0.847   3.029 -24.249  0.00  0.00    +0.116 A 
ATOM     18  C   UNL     1      -3.068   3.114 -23.178  0.00  0.00    +0.208 C 
ATOM     19  C   UNL     1      -1.956   3.538 -24.882  0.00  0.00    +0.105 C 
ENDROOT
TORSDOF 0
ENDMDL
MODEL 4
REMARK VINA RESULT:    -9.620      1.282      4.324
REMARK INTER + INTRA:          -9.620
REMARK INTER:                  -9.620
REMARK INTRA:                   0.000
REMARK UNBOUND:                 0.000
REMARK  Name = CC1=CCC[C@@]23O[C@@H]2[C@@H](OC3=O)c2c(C)coc2C1                      ZINC000822218737
REMARK  2 active torsions:
REMARK  status: ('A' for Active; 'I' for Inactive)
REMARK    1  A    between atoms: C_1  and  C_2
REMARK    2  A    between atoms: C_14  and  C_15
REMARK                            x       y       z     vdW  Elec       q    Type
REMARK                         _______ _______ _______ _____ _____    ______ ____
ROOT
ATOM      1  C   UNL     1      -0.257   1.496 -21.328  0.00  0.00    +0.039 C 
ATOM      2  C   UNL     1      -0.288   2.192 -22.414  0.00  0.00    -0.069 C 
ATOM      3  C   UNL     1       0.961   1.686 -22.034  0.00  0.00    -0.027 C 
ATOM      4  C   UNL     1       2.126   1.989 -22.903  0.00  0.00    +0.030 C 
ATOM      5  C   UNL     1       1.888   2.755 -24.031  0.00  0.00    +0.053 C 
ATOM      6  C   UNL     1       0.762   2.964 -23.983  0.00  0.00    +0.196 C 
ATOM      7  O   UNL     1       0.850   2.263 -22.907  0.00  0.00    -0.349 OA
ATOM      8  C   UNL     1       0.417   3.680 -24.997  0.00  0.00    +0.343 C 
ATOM      9  O   UNL     1       1.199   4.105 -25.928  0.00  0.00    -0.247 OA
ATOM     10  O   UNL     1      -0.853   3.898 -24.914  0.00  0.00    -0.452 OA
ATOM     11  C   UNL     1      -1.291   3.317 -23.852  0.00  0.00    +0.242 C 
ATOM     12  C   UNL     1      -2.285   3.263 -23.434  0.00  0.00    +0.039 A 
ATOM     13  C   UNL     1      -3.377   3.781 -23.884  0.00  0.00    -0.006 A 
ATOM     14  C   UNL     1      -4.332   3.470 -23.075  0.00  0.00    +0.199 A 
ATOM     15  O   UNL     1      -3.827   2.759 -22.122  0.00  0.00    -0.467 OA
ATOM     16  C   UNL     1      -3.482   4.486 -24.961  0.00  0.00    +0.047 C 
ATOM     17  C   UNL     1      -2.567   2.630 -22.341  0.00  0.00    +0.116 A 
ATOM     18  C   UNL     1      -0.287   2.739 -23.276  0.00  0.00    +0.208 C 
ATOM     19  C   UNL     1      -1.490   2.021 -21.741  0.00  0.00    +0.105 C 
ENDROOT
TORSDOF 0
ENDMDL
MODEL 5
REMARK VINA RESULT:    -8.940      1.251      3.915
REMARK INTER + INTRA:          -8.940
REMARK INTER:                  -8.940
REMARK INTRA:                   0.000
REMARK UNBOUND:                 0.000
REMARK  Name = CC1=CCC[C@@]23O[C@@H]2[C@@H](OC3=O)c2c(C)coc2C1                      ZINC000822218737
REMARK  2 active torsions:
REMARK  status: ('A' for Active; 'I' for Inactive)
REMARK    1  A    between atoms: C_1  and  C_2
REMARK    2  A    between atoms: C_14  and  C_15
REMARK                            x       y       z     vdW  Elec       q    Type
REMARK                         _______ _______ _______ _____ _____    ______ ____
ROOT
ATOM      1  C   UNL     1      -3.011   2.582 -21.002  0.00  0.00    +0.039 C 
ATOM      2  C   UNL     1      -2.369   2.656 -22.119  0.00  0.00    -0.069 C 
ATOM      3  C   UNL     1      -1.632   2.236 -21.004  0.00  0.00    -0.027 C 
ATOM      4  C   UNL     1      -0.197   1.917 -21.201  0.00  0.00    +0.030 C 
ATOM      5  C   UNL     1       0.311   2.060 -22.482  0.00  0.00    +0.053 C 
ATOM      6  C   UNL     1      -0.592   2.415 -23.092  0.00  0.00    +0.196 C 
ATOM      7  O   UNL     1      -1.184   2.323 -21.952  0.00  0.00    -0.349 OA
ATOM      8  C   UNL     1      -0.239   2.586 -24.319  0.00  0.00    +0.343 C 
ATOM      9  O   UNL     1       0.940   2.392 -24.803  0.00  0.00    -0.247 OA
ATOM     10  O   UNL     1      -1.274   2.985 -24.978  0.00  0.00    -0.452 OA
ATOM     11  C   UNL     1      -2.265   3.061 -24.160  0.00  0.00    +0.242 C 
ATOM     12  C   UNL     1      -3.293   3.353 -24.318  0.00  0.00    +0.039 A 
ATOM     13  C   UNL     1      -3.864   3.727 -25.412  0.00  0.00    -0.006 A 
ATOM     14  C   UNL     1      -5.100   3.983 -25.152  0.00  0.00    +0.199 A 
ATOM     15  O   UNL     1      -5.293   3.766 -23.893  0.00  0.00    -0.467 OA
ATOM     16  C   UNL     1      -3.286   3.825 -26.563  0.00  0.00    +0.047 C 
ATOM     17  C   UNL     1      -4.182   3.377 -23.377  0.00  0.00    +0.116 A 
ATOM     18  C   UNL     1      -1.839   2.707 -22.990  0.00  0.00    +0.208 C 
ATOM     19  C   UNL     1      -3.714   2.999 -22.141  0.00  0.00    +0.105 C 
ENDROOT
TORSDOF 0
ENDMDL
MODEL 6
REMARK VINA RESULT:    -8.843      1.455      5.555
REMARK INTER + INTRA:          -8.843
REMARK INTER:                  -8.843
REMARK INTRA:                   0.000
REMARK UNBOUND:                 0.000
REMARK  Name = CC1=CCC[C@@]23O[C@@H]2[C@@H](OC3=O)c2c(C)coc2C1                      ZINC000822218737
REMARK  2 active torsions:
REMARK  status: ('A' for Active; 'I' for Inactive)
REMARK    1  A    between atoms: C_1  and  C_2
REMARK    2  A    between atoms: C_14  and  C_15
REMARK                            x       y       z     vdW  Elec       q    Type
REMARK                         _______ _______ _______ _____ _____    ______ ____
ROOT
ATOM      1  C   UNL     1       1.538   2.924 -25.172  0.00  0.00    +0.039 C 
ATOM      2  C   UNL     1       1.056   2.642 -24.009  0.00  0.00    -0.069 C 
ATOM      3  C   UNL     1       2.419   2.379 -24.200  0.00  0.00    -0.027 C 
ATOM      4  C   UNL     1       3.181   1.806 -23.062  0.00  0.00    +0.030 C 
ATOM      5  C   UNL     1       2.483   1.573 -21.889  0.00  0.00    +0.053 C 
ATOM      6  C   UNL     1       1.417   1.914 -22.137  0.00  0.00    +0.196 C 
ATOM      7  O   UNL     1       1.949   2.177 -23.280  0.00  0.00    -0.349 OA
ATOM      8  C   UNL     1       0.663   1.743 -21.107  0.00  0.00    +0.343 C 
ATOM      9  O   UNL     1       1.031   1.265 -19.968  0.00  0.00    -0.247 OA
ATOM     10  O   UNL     1      -0.527   2.136 -21.417  0.00  0.00    -0.452 OA
ATOM     11  C   UNL     1      -0.508   2.548 -22.637  0.00  0.00    +0.242 C 
ATOM     12  C   UNL     1      -1.293   2.951 -23.260  0.00  0.00    +0.039 A 
ATOM     13  C   UNL     1      -2.532   3.148 -22.966  0.00  0.00    -0.006 A 
ATOM     14  C   UNL     1      -3.117   3.644 -24.003  0.00  0.00    +0.199 A 
ATOM     15  O   UNL     1      -2.234   3.752 -24.940  0.00  0.00    -0.467 OA
ATOM     16  C   UNL     1      -3.082   2.890 -21.825  0.00  0.00    +0.047 C 
ATOM     17  C   UNL     1      -1.110   3.326 -24.485  0.00  0.00    +0.116 A 
ATOM     18  C   UNL     1       0.699   2.410 -23.081  0.00  0.00    +0.208 C 
ATOM     19  C   UNL     1       0.177   3.173 -24.943  0.00  0.00    +0.105 C 
ENDROOT
TORSDOF 0
ENDMDL
MODEL 7
REMARK VINA RESULT:    -8.692      1.535      3.226
REMARK INTER + INTRA:          -8.692
REMARK INTER:                  -8.692
REMARK INTRA:                   0.000
REMARK UNBOUND:                 0.000
REMARK  Name = CC1=CCC[C@@]23O[C@@H]2[C@@H](OC3=O)c2c(C)coc2C1                      ZINC000822218737
REMARK  2 active torsions:
REMARK  status: ('A' for Active; 'I' for Inactive)
REMARK    1  A    between atoms: C_1  and  C_2
REMARK    2  A    between atoms: C_14  and  C_15
REMARK                            x       y       z     vdW  Elec       q    Type
REMARK                         _______ _______ _______ _____ _____    ______ ____
ROOT
ATOM      1  C   UNL     1      -0.895   3.378 -22.143  0.00  0.00    +0.039 C 
ATOM      2  C   UNL     1      -2.152   3.377 -22.432  0.00  0.00    -0.069 C 
ATOM      3  C   UNL     1      -1.827   3.377 -21.070  0.00  0.00    -0.027 C 
ATOM      4  C   UNL     1      -2.941   3.376 -20.090  0.00  0.00    +0.030 C 
ATOM      5  C   UNL     1      -4.229   3.374 -20.600  0.00  0.00    +0.053 C 
ATOM      6  C   UNL     1      -4.070   3.374 -21.735  0.00  0.00    +0.196 C 
ATOM      7  O   UNL     1      -2.829   3.376 -21.391  0.00  0.00    -0.349 OA
ATOM      8  C   UNL     1      -5.214   3.373 -22.327  0.00  0.00    +0.343 C 
ATOM      9  O   UNL     1      -6.366   3.372 -21.751  0.00  0.00    -0.247 OA
ATOM     10  O   UNL     1      -5.001   3.373 -23.600  0.00  0.00    -0.452 OA
ATOM     11  C   UNL     1      -3.728   3.375 -23.794  0.00  0.00    +0.242 C 
ATOM     12  C   UNL     1      -3.152   3.376 -24.708  0.00  0.00    +0.039 A 
ATOM     13  C   UNL     1      -3.574   3.375 -25.926  0.00  0.00    -0.006 A 
ATOM     14  C   UNL     1      -2.548   3.376 -26.706  0.00  0.00    +0.199 A 
ATOM     15  O   UNL     1      -1.488   3.378 -25.966  0.00  0.00    -0.467 OA
ATOM     16  C   UNL     1      -4.814   3.373 -26.288  0.00  0.00    +0.047 C 
ATOM     17  C   UNL     1      -1.858   3.377 -24.735  0.00  0.00    +0.116 A 
ATOM     18  C   UNL     1      -3.153   3.376 -22.636  0.00  0.00    +0.208 C 
ATOM     19  C   UNL     1      -1.261   3.378 -23.497  0.00  0.00    +0.105 C 
ENDROOT
TORSDOF 0
ENDMDL
MODEL 8
REMARK VINA RESULT:    -8.550      2.954      6.432
REMARK INTER + INTRA:          -8.550
REMARK INTER:                  -8.550
REMARK INTRA:                   0.000
REMARK UNBOUND:                 0.000
REMARK  Name = CC1=CCC[C@@]23O[C@@H]2[C@@H](OC3=O)c2c(C)coc2C1                      ZINC000822218737
REMARK  2 active torsions:
REMARK  status: ('A' for Active; 'I' for Inactive)
REMARK    1  A    between atoms: C_1  and  C_2
REMARK    2  A    between atoms: C_14  and  C_15
REMARK                            x       y       z     vdW  Elec       q    Type
REMARK                         _______ _______ _______ _____ _____    ______ ____
ROOT
ATOM      1  C   UNL     1       3.234   1.462 -24.187  0.00  0.00    +0.039 C 
ATOM      2  C   UNL     1       2.954   2.656 -23.785  0.00  0.00    -0.069 C 
ATOM      3  C   UNL     1       4.313   2.349 -23.925  0.00  0.00    -0.027 C 
ATOM      4  C   UNL     1       5.300   3.409 -23.604  0.00  0.00    +0.030 C 
ATOM      5  C   UNL     1       4.800   4.631 -23.186  0.00  0.00    +0.053 C 
ATOM      6  C   UNL     1       3.664   4.478 -23.204  0.00  0.00    +0.196 C 
ATOM      7  O   UNL     1       4.000   3.300 -23.602  0.00  0.00    -0.349 OA
ATOM      8  C   UNL     1       3.080   5.563 -22.829  0.00  0.00    +0.343 C 
ATOM      9  O   UNL     1       3.664   6.659 -22.485  0.00  0.00    -0.247 OA
ATOM     10  O   UNL     1       1.806   5.359 -22.860  0.00  0.00    -0.452 OA
ATOM     11  C   UNL     1       1.603   4.150 -23.253  0.00  0.00    +0.242 C 
ATOM     12  C   UNL     1       0.686   3.600 -23.408  0.00  0.00    +0.039 A 
ATOM     13  C   UNL     1      -0.528   3.999 -23.242  0.00  0.00    -0.006 A 
ATOM     14  C   UNL     1      -1.315   3.023 -23.542  0.00  0.00    +0.199 A 
ATOM     15  O   UNL     1      -0.583   2.018 -23.894  0.00  0.00    -0.467 OA
ATOM     16  C   UNL     1      -0.882   5.175 -22.844  0.00  0.00    +0.047 C 
ATOM     17  C   UNL     1       0.650   2.371 -23.813  0.00  0.00    +0.116 A 
ATOM     18  C   UNL     1       2.758   3.606 -23.466  0.00  0.00    +0.208 C 
ATOM     19  C   UNL     1       1.884   1.807 -24.034  0.00  0.00    +0.105 C 
ENDROOT
TORSDOF 0
ENDMDL
MODEL 9
REMARK VINA RESULT:    -8.488      2.440      4.623
REMARK INTER + INTRA:          -8.488
REMARK INTER:                  -8.488
REMARK INTRA:                   0.000
REMARK UNBOUND:                 0.000
REMARK  Name = CC1=CCC[C@@]23O[C@@H]2[C@@H](OC3=O)c2c(C)coc2C1                      ZINC000822218737
REMARK  2 active torsions:
REMARK  status: ('A' for Active; 'I' for Inactive)
REMARK    1  A    between atoms: C_1  and  C_2
REMARK    2  A    between atoms: C_14  and  C_15
REMARK                            x       y       z     vdW  Elec       q    Type
REMARK                         _______ _______ _______ _____ _____    ______ ____
ROOT
ATOM      1  C   UNL     1       0.834   4.031 -25.511  0.00  0.00    +0.039 C 
ATOM      2  C   UNL     1       0.644   3.358 -24.426  0.00  0.00    -0.069 C 
ATOM      3  C   UNL     1      -0.493   3.630 -25.199  0.00  0.00    -0.027 C 
ATOM      4  C   UNL     1      -1.801   3.127 -24.709  0.00  0.00    +0.030 C 
ATOM      5  C   UNL     1      -1.799   2.422 -23.518  0.00  0.00    +0.053 C 
ATOM      6  C   UNL     1      -0.696   2.418 -23.208  0.00  0.00    +0.196 C 
ATOM      7  O   UNL     1      -0.562   3.087 -24.300  0.00  0.00    -0.349 OA
ATOM      8  C   UNL     1      -0.566   1.781 -22.095  0.00  0.00    +0.343 C 
ATOM      9  O   UNL     1      -1.516   1.228 -21.423  0.00  0.00    -0.247 OA
ATOM     10  O   UNL     1       0.684   1.795 -21.774  0.00  0.00    -0.452 OA
ATOM     11  C   UNL     1       1.325   2.439 -22.686  0.00  0.00    +0.242 C 
ATOM     12  C   UNL     1       2.376   2.668 -22.784  0.00  0.00    +0.039 A 
ATOM     13  C   UNL     1       3.345   2.357 -21.992  0.00  0.00    -0.006 A 
ATOM     14  C   UNL     1       4.437   2.829 -22.489  0.00  0.00    +0.199 A 
ATOM     15  O   UNL     1       4.140   3.434 -23.592  0.00  0.00    -0.467 OA
ATOM     16  C   UNL     1       3.228   1.688 -20.893  0.00  0.00    +0.047 C 
ATOM     17  C   UNL     1       2.872   3.336 -23.776  0.00  0.00    +0.116 A 
ATOM     18  C   UNL     1       0.467   2.825 -23.574  0.00  0.00    +0.208 C 
ATOM     19  C   UNL     1       1.948   3.739 -24.710  0.00  0.00    +0.105 C 
ENDROOT
TORSDOF 0
ENDMDL
