MODEL 1
REMARK VINA RESULT:    -8.801      0.000      0.000
REMARK INTER + INTRA:         -12.436
REMARK INTER:                 -11.584
REMARK INTRA:                  -0.852
REMARK UNBOUND:                -0.549
REMARK  Name = ZINC000000056555
REMARK  10 active torsions:
REMARK  status: ('A' for Active; 'I' for Inactive)
REMARK    1  A    between atoms: C_1  and  O_2
REMARK    2  A    between atoms: O_2  and  C_3
REMARK    3  A    between atoms: C_6  and  C_7
REMARK    4  A    between atoms: C_7  and  C_8
REMARK    5  A    between atoms: C_14  and  O_15
REMARK    6  A    between atoms: O_15  and  C_16
REMARK    7  A    between atoms: C_17  and  O_18
REMARK    8  A    between atoms: O_18  and  C_19
REMARK    9  A    between atoms: C_23  and  O_24
REMARK   10  A    between atoms: O_24  and  C_25
REMARK                            x       y       z     vdW  Elec       q    Type
REMARK                         _______ _______ _______ _____ _____    ______ ____
ROOT
ATOM      1  C   UNL     1       0.345   2.369 -23.209  0.00  0.00    +0.053 A 
ATOM      2  N   UNL     1       0.785   1.780 -22.138  0.00  0.00    -0.259 NA
ATOM      3  C   UNL     1      -0.028   1.529 -21.154  0.00  0.00    +0.111 A 
ATOM      4  C   UNL     1      -1.280   1.867 -21.243  0.00  0.00    +0.028 A 
ATOM      5  C   UNL     1      -1.719   2.456 -22.315  0.00  0.00    -0.011 A 
ATOM      6  C   UNL     1      -2.972   2.795 -22.404  0.00  0.00    +0.058 A 
ATOM      7  C   UNL     1      -3.411   3.385 -23.476  0.00  0.00    +0.162 A 
ATOM      8  C   UNL     1      -2.598   3.636 -24.459  0.00  0.00    +0.162 A 
ATOM      9  C   UNL     1      -1.346   3.297 -24.370  0.00  0.00    +0.059 A 
ATOM     10  C   UNL     1      -0.907   2.707 -23.298  0.00  0.00    +0.007 A 
ENDROOT
BRANCH   8  11
ATOM     11  O   UNL     1      -3.037   4.225 -25.531  0.00  0.00    -0.491 OA
ATOM     12  C   UNL     1      -3.191   3.546 -26.630  0.00  0.00    +0.277 C 
ENDBRANCH   8  11
BRANCH   7  13
ATOM     13  O   UNL     1      -4.662   3.723 -23.565  0.00  0.00    -0.491 OA
ATOM     14  C   UNL     1      -5.469   3.498 -22.570  0.00  0.00    +0.277 C 
ENDBRANCH   7  13
BRANCH   1  15
ATOM     15  C   UNL     1       1.158   2.620 -24.193  0.00  0.00    +0.091 C 
BRANCH  15  19
ATOM     16  C   UNL     1       4.873   3.554 -23.463  0.00  0.00    +0.161 A 
ATOM     17  C   UNL     1       4.580   2.382 -23.944  0.00  0.00    +0.049 A 
ATOM     18  C   UNL     1       3.342   2.071 -24.187  0.00  0.00    +0.008 A 
ATOM     19  C   UNL     1       2.396   2.931 -23.949  0.00  0.00    -0.038 A 
ATOM     20  C   UNL     1       2.690   4.103 -23.469  0.00  0.00    +0.053 A 
ATOM     21  C   UNL     1       3.928   4.414 -23.225  0.00  0.00    +0.162 A 
BRANCH  16  23
ATOM     22  C   UNL     1       6.936   2.961 -22.782  0.00  0.00    +0.277 C 
ATOM     23  O   UNL     1       6.111   3.865 -23.219  0.00  0.00    -0.491 OA
ENDBRANCH  16  23
BRANCH  21  24
ATOM     24  O   UNL     1       4.221   5.586 -22.744  0.00  0.00    -0.491 OA
ATOM     25  C   UNL     1       3.292   6.484 -22.608  0.00  0.00    +0.277 C 
ENDBRANCH  21  24
ENDBRANCH  15  19
ENDBRANCH   1  15
TORSDOF 6
ENDMDL
MODEL 2
REMARK VINA RESULT:    -8.731      0.803      1.914
REMARK INTER + INTRA:         -12.342
REMARK INTER:                 -11.529
REMARK INTRA:                  -0.813
REMARK UNBOUND:                -0.549
REMARK  Name = ZINC000000056555
REMARK  10 active torsions:
REMARK  status: ('A' for Active; 'I' for Inactive)
REMARK    1  A    between atoms: C_1  and  O_2
REMARK    2  A    between atoms: O_2  and  C_3
REMARK    3  A    between atoms: C_6  and  C_7
REMARK    4  A    between atoms: C_7  and  C_8
REMARK    5  A    between atoms: C_14  and  O_15
REMARK    6  A    between atoms: O_15  and  C_16
REMARK    7  A    between atoms: C_17  and  O_18
REMARK    8  A    between atoms: O_18  and  C_19
REMARK    9  A    between atoms: C_23  and  O_24
REMARK   10  A    between atoms: O_24  and  C_25
REMARK                            x       y       z     vdW  Elec       q    Type
REMARK                         _______ _______ _______ _____ _____    ______ ____
ROOT
ATOM      1  C   UNL     1       0.274   2.768 -23.088  0.00  0.00    +0.053 A 
ATOM      2  N   UNL     1       0.787   2.031 -22.149  0.00  0.00    -0.259 NA
ATOM      3  C   UNL     1       0.015   1.486 -21.256  0.00  0.00    +0.111 A 
ATOM      4  C   UNL     1      -1.270   1.677 -21.303  0.00  0.00    +0.028 A 
ATOM      5  C   UNL     1      -1.783   2.415 -22.242  0.00  0.00    -0.011 A 
ATOM      6  C   UNL     1      -3.068   2.607 -22.290  0.00  0.00    +0.058 A 
ATOM      7  C   UNL     1      -3.581   3.345 -23.229  0.00  0.00    +0.162 A 
ATOM      8  C   UNL     1      -2.809   3.891 -24.122  0.00  0.00    +0.162 A 
ATOM      9  C   UNL     1      -1.523   3.698 -24.074  0.00  0.00    +0.059 A 
ATOM     10  C   UNL     1      -1.011   2.960 -23.135  0.00  0.00    +0.007 A 
ENDROOT
BRANCH   8  11
ATOM     11  O   UNL     1      -3.321   4.628 -25.061  0.00  0.00    -0.491 OA
ATOM     12  C   UNL     1      -3.590   4.108 -26.222  0.00  0.00    +0.277 C 
ENDBRANCH   8  11
BRANCH   7  13
ATOM     13  O   UNL     1      -4.865   3.537 -23.276  0.00  0.00    -0.491 OA
ATOM     14  C   UNL     1      -5.590   3.351 -22.213  0.00  0.00    +0.277 C 
ENDBRANCH   7  13
BRANCH   1  15
ATOM     15  C   UNL     1       1.046   3.314 -23.981  0.00  0.00    +0.091 C 
BRANCH  15  19
ATOM     16  C   UNL     1       4.253   5.237 -22.872  0.00  0.00    +0.161 A 
ATOM     17  C   UNL     1       3.101   5.839 -22.869  0.00  0.00    +0.049 A 
ATOM     18  C   UNL     1       2.032   5.198 -23.239  0.00  0.00    +0.008 A 
ATOM     19  C   UNL     1       2.115   3.955 -23.611  0.00  0.00    -0.038 A 
ATOM     20  C   UNL     1       3.268   3.354 -23.614  0.00  0.00    +0.053 A 
ATOM     21  C   UNL     1       4.337   3.994 -23.244  0.00  0.00    +0.162 A 
BRANCH  16  23
ATOM     22  C   UNL     1       5.224   7.072 -21.998  0.00  0.00    +0.277 C 
ATOM     23  O   UNL     1       5.322   5.877 -22.502  0.00  0.00    -0.491 OA
ENDBRANCH  16  23
BRANCH  21  24
ATOM     24  O   UNL     1       5.489   3.392 -23.247  0.00  0.00    -0.491 OA
ATOM     25  C   UNL     1       5.707   2.403 -22.433  0.00  0.00    +0.277 C 
ENDBRANCH  21  24
ENDBRANCH  15  19
ENDBRANCH   1  15
TORSDOF 6
ENDMDL
MODEL 3
REMARK VINA RESULT:    -8.697      1.813      7.596
REMARK INTER + INTRA:         -12.296
REMARK INTER:                 -11.912
REMARK INTRA:                  -0.385
REMARK UNBOUND:                -0.549
REMARK  Name = ZINC000000056555
REMARK  10 active torsions:
REMARK  status: ('A' for Active; 'I' for Inactive)
REMARK    1  A    between atoms: C_1  and  O_2
REMARK    2  A    between atoms: O_2  and  C_3
REMARK    3  A    between atoms: C_6  and  C_7
REMARK    4  A    between atoms: C_7  and  C_8
REMARK    5  A    between atoms: C_14  and  O_15
REMARK    6  A    between atoms: O_15  and  C_16
REMARK    7  A    between atoms: C_17  and  O_18
REMARK    8  A    between atoms: O_18  and  C_19
REMARK    9  A    between atoms: C_23  and  O_24
REMARK   10  A    between atoms: O_24  and  C_25
REMARK                            x       y       z     vdW  Elec       q    Type
REMARK                         _______ _______ _______ _____ _____    ______ ____
ROOT
ATOM      1  C   UNL     1       0.465   3.231 -22.885  0.00  0.00    +0.053 A 
ATOM      2  N   UNL     1       0.045   4.384 -23.313  0.00  0.00    -0.259 NA
ATOM      3  C   UNL     1       0.900   5.283 -23.701  0.00  0.00    +0.111 A 
ATOM      4  C   UNL     1       2.175   5.030 -23.660  0.00  0.00    +0.028 A 
ATOM      5  C   UNL     1       2.594   3.877 -23.231  0.00  0.00    -0.011 A 
ATOM      6  C   UNL     1       3.869   3.623 -23.190  0.00  0.00    +0.058 A 
ATOM      7  C   UNL     1       4.288   2.469 -22.762  0.00  0.00    +0.162 A 
ATOM      8  C   UNL     1       3.433   1.570 -22.374  0.00  0.00    +0.162 A 
ATOM      9  C   UNL     1       2.158   1.824 -22.415  0.00  0.00    +0.059 A 
ATOM     10  C   UNL     1       1.739   2.978 -22.844  0.00  0.00    +0.007 A 
ENDROOT
BRANCH   8  11
ATOM     11  O   UNL     1       3.852   0.417 -21.945  0.00  0.00    -0.491 OA
ATOM     12  C   UNL     1       3.998   0.211 -20.669  0.00  0.00    +0.277 C 
ENDBRANCH   8  11
BRANCH   7  13
ATOM     13  O   UNL     1       5.562   2.216 -22.721  0.00  0.00    -0.491 OA
ATOM     14  C   UNL     1       6.373   3.053 -22.146  0.00  0.00    +0.277 C 
ENDBRANCH   7  13
BRANCH   1  15
ATOM     15  C   UNL     1      -0.390   2.331 -22.496  0.00  0.00    +0.091 C 
BRANCH  15  19
ATOM     16  C   UNL     1      -4.152   3.269 -22.077  0.00  0.00    +0.161 A 
ATOM     17  C   UNL     1      -3.423   3.024 -21.029  0.00  0.00    +0.049 A 
ATOM     18  C   UNL     1      -2.169   2.712 -21.169  0.00  0.00    +0.008 A 
ATOM     19  C   UNL     1      -1.644   2.644 -22.357  0.00  0.00    -0.038 A 
ATOM     20  C   UNL     1      -2.375   2.889 -23.404  0.00  0.00    +0.053 A 
ATOM     21  C   UNL     1      -3.628   3.201 -23.264  0.00  0.00    +0.162 A 
BRANCH  16  23
ATOM     22  C   UNL     1      -6.276   2.664 -21.635  0.00  0.00    +0.277 C 
ATOM     23  O   UNL     1      -5.406   3.582 -21.937  0.00  0.00    -0.491 OA
ENDBRANCH  16  23
BRANCH  21  24
ATOM     24  O   UNL     1      -4.358   3.446 -24.312  0.00  0.00    -0.491 OA
ATOM     25  C   UNL     1      -4.063   4.444 -25.090  0.00  0.00    +0.277 C 
ENDBRANCH  21  24
ENDBRANCH  15  19
ENDBRANCH   1  15
TORSDOF 6
ENDMDL
MODEL 4
REMARK VINA RESULT:    -8.687      2.078      3.579
REMARK INTER + INTRA:         -12.282
REMARK INTER:                 -11.598
REMARK INTRA:                  -0.684
REMARK UNBOUND:                -0.549
REMARK  Name = ZINC000000056555
REMARK  10 active torsions:
REMARK  status: ('A' for Active; 'I' for Inactive)
REMARK    1  A    between atoms: C_1  and  O_2
REMARK    2  A    between atoms: O_2  and  C_3
REMARK    3  A    between atoms: C_6  and  C_7
REMARK    4  A    between atoms: C_7  and  C_8
REMARK    5  A    between atoms: C_14  and  O_15
REMARK    6  A    between atoms: O_15  and  C_16
REMARK    7  A    between atoms: C_17  and  O_18
REMARK    8  A    between atoms: O_18  and  C_19
REMARK    9  A    between atoms: C_23  and  O_24
REMARK   10  A    between atoms: O_24  and  C_25
REMARK                            x       y       z     vdW  Elec       q    Type
REMARK                         _______ _______ _______ _____ _____    ______ ____
ROOT
ATOM      1  C   UNL     1      -1.197   3.859 -24.192  0.00  0.00    +0.053 A 
ATOM      2  N   UNL     1      -1.056   3.649 -25.466  0.00  0.00    -0.259 NA
ATOM      3  C   UNL     1      -2.095   3.378 -26.199  0.00  0.00    +0.111 A 
ATOM      4  C   UNL     1      -3.275   3.316 -25.657  0.00  0.00    +0.028 A 
ATOM      5  C   UNL     1      -3.416   3.526 -24.382  0.00  0.00    -0.011 A 
ATOM      6  C   UNL     1      -4.596   3.465 -23.839  0.00  0.00    +0.058 A 
ATOM      7  C   UNL     1      -4.736   3.675 -22.564  0.00  0.00    +0.162 A 
ATOM      8  C   UNL     1      -3.697   3.946 -21.831  0.00  0.00    +0.162 A 
ATOM      9  C   UNL     1      -2.517   4.008 -22.374  0.00  0.00    +0.059 A 
ATOM     10  C   UNL     1      -2.377   3.798 -23.649  0.00  0.00    +0.007 A 
ENDROOT
BRANCH   8  11
ATOM     11  O   UNL     1      -3.838   4.157 -20.556  0.00  0.00    -0.491 OA
ATOM     12  C   UNL     1      -3.158   3.451 -19.702  0.00  0.00    +0.277 C 
ENDBRANCH   8  11
BRANCH   7  13
ATOM     13  O   UNL     1      -5.916   3.614 -22.022  0.00  0.00    -0.491 OA
ATOM     14  C   UNL     1      -6.406   2.465 -21.661  0.00  0.00    +0.277 C 
ENDBRANCH   7  13
BRANCH   1  15
ATOM     15  C   UNL     1      -0.157   4.131 -23.458  0.00  0.00    +0.091 C 
BRANCH  15  19
ATOM     16  C   UNL     1       2.394   1.317 -22.574  0.00  0.00    +0.161 A 
ATOM     17  C   UNL     1       1.216   1.322 -22.024  0.00  0.00    +0.049 A 
ATOM     18  C   UNL     1       0.366   2.260 -22.319  0.00  0.00    +0.008 A 
ATOM     19  C   UNL     1       0.693   3.193 -23.164  0.00  0.00    -0.038 A 
ATOM     20  C   UNL     1       1.871   3.187 -23.713  0.00  0.00    +0.053 A 
ATOM     21  C   UNL     1       2.722   2.249 -23.418  0.00  0.00    +0.162 A 
BRANCH  16  23
ATOM     22  C   UNL     1       3.817   0.363 -21.112  0.00  0.00    +0.277 C 
ATOM     23  O   UNL     1       3.244   0.379 -22.279  0.00  0.00    -0.491 OA
ENDBRANCH  16  23
BRANCH  21  24
ATOM     24  O   UNL     1       3.900   2.244 -23.968  0.00  0.00    -0.491 OA
ATOM     25  C   UNL     1       4.797   3.106 -23.591  0.00  0.00    +0.277 C 
ENDBRANCH  21  24
ENDBRANCH  15  19
ENDBRANCH   1  15
TORSDOF 6
ENDMDL
MODEL 5
REMARK VINA RESULT:    -8.442      1.494      7.350
REMARK INTER + INTRA:         -11.952
REMARK INTER:                 -11.268
REMARK INTRA:                  -0.684
REMARK UNBOUND:                -0.549
REMARK  Name = ZINC000000056555
REMARK  10 active torsions:
REMARK  status: ('A' for Active; 'I' for Inactive)
REMARK    1  A    between atoms: C_1  and  O_2
REMARK    2  A    between atoms: O_2  and  C_3
REMARK    3  A    between atoms: C_6  and  C_7
REMARK    4  A    between atoms: C_7  and  C_8
REMARK    5  A    between atoms: C_14  and  O_15
REMARK    6  A    between atoms: O_15  and  C_16
REMARK    7  A    between atoms: C_17  and  O_18
REMARK    8  A    between atoms: O_18  and  C_19
REMARK    9  A    between atoms: C_23  and  O_24
REMARK   10  A    between atoms: O_24  and  C_25
REMARK                            x       y       z     vdW  Elec       q    Type
REMARK                         _______ _______ _______ _____ _____    ______ ____
ROOT
ATOM      1  C   UNL     1       1.937   3.469 -24.253  0.00  0.00    +0.053 A 
ATOM      2  N   UNL     1       1.658   2.289 -24.720  0.00  0.00    -0.259 NA
ATOM      3  C   UNL     1       2.553   1.347 -24.681  0.00  0.00    +0.111 A 
ATOM      4  C   UNL     1       3.726   1.584 -24.174  0.00  0.00    +0.028 A 
ATOM      5  C   UNL     1       4.004   2.765 -23.706  0.00  0.00    -0.011 A 
ATOM      6  C   UNL     1       5.178   3.004 -23.199  0.00  0.00    +0.058 A 
ATOM      7  C   UNL     1       5.456   4.185 -22.732  0.00  0.00    +0.162 A 
ATOM      8  C   UNL     1       4.561   5.127 -22.771  0.00  0.00    +0.162 A 
ATOM      9  C   UNL     1       3.387   4.888 -23.278  0.00  0.00    +0.059 A 
ATOM     10  C   UNL     1       3.109   3.707 -23.746  0.00  0.00    +0.007 A 
ENDROOT
BRANCH   8  11
ATOM     11  O   UNL     1       4.839   6.307 -22.304  0.00  0.00    -0.491 OA
ATOM     12  C   UNL     1       3.888   7.178 -22.129  0.00  0.00    +0.277 C 
ENDBRANCH   8  11
BRANCH   7  13
ATOM     13  O   UNL     1       6.628   4.423 -22.225  0.00  0.00    -0.491 OA
ATOM     14  C   UNL     1       6.943   3.940 -21.060  0.00  0.00    +0.277 C 
ENDBRANCH   7  13
BRANCH   1  15
ATOM     15  C   UNL     1       1.041   4.411 -24.292  0.00  0.00    +0.091 C 
BRANCH  15  19
ATOM     16  C   UNL     1      -2.674   3.610 -23.416  0.00  0.00    +0.161 A 
ATOM     17  C   UNL     1      -1.895   4.139 -22.520  0.00  0.00    +0.049 A 
ATOM     18  C   UNL     1      -0.656   4.406 -22.812  0.00  0.00    +0.008 A 
ATOM     19  C   UNL     1      -0.197   4.144 -24.000  0.00  0.00    -0.038 A 
ATOM     20  C   UNL     1      -0.977   3.616 -24.896  0.00  0.00    +0.053 A 
ATOM     21  C   UNL     1      -2.215   3.348 -24.604  0.00  0.00    +0.162 A 
BRANCH  16  23
ATOM     22  C   UNL     1      -4.235   2.993 -21.915  0.00  0.00    +0.277 C 
ATOM     23  O   UNL     1      -3.912   3.343 -23.125  0.00  0.00    -0.491 OA
ENDBRANCH  16  23
BRANCH  21  24
ATOM     24  O   UNL     1      -2.995   2.820 -25.500  0.00  0.00    -0.491 OA
ATOM     25  C   UNL     1      -3.335   3.504 -26.551  0.00  0.00    +0.277 C 
ENDBRANCH  21  24
ENDBRANCH  15  19
ENDBRANCH   1  15
TORSDOF 6
ENDMDL
MODEL 6
REMARK VINA RESULT:    -8.221      1.775      3.177
REMARK INTER + INTRA:         -11.653
REMARK INTER:                 -11.349
REMARK INTRA:                  -0.304
REMARK UNBOUND:                -0.549
REMARK  Name = ZINC000000056555
REMARK  10 active torsions:
REMARK  status: ('A' for Active; 'I' for Inactive)
REMARK    1  A    between atoms: C_1  and  O_2
REMARK    2  A    between atoms: O_2  and  C_3
REMARK    3  A    between atoms: C_6  and  C_7
REMARK    4  A    between atoms: C_7  and  C_8
REMARK    5  A    between atoms: C_14  and  O_15
REMARK    6  A    between atoms: O_15  and  C_16
REMARK    7  A    between atoms: C_17  and  O_18
REMARK    8  A    between atoms: O_18  and  C_19
REMARK    9  A    between atoms: C_23  and  O_24
REMARK   10  A    between atoms: O_24  and  C_25
REMARK                            x       y       z     vdW  Elec       q    Type
REMARK                         _______ _______ _______ _____ _____    ______ ____
ROOT
ATOM      1  C   UNL     1       0.296   2.826 -23.469  0.00  0.00    +0.053 A 
ATOM      2  N   UNL     1       0.833   3.036 -24.633  0.00  0.00    -0.259 NA
ATOM      3  C   UNL     1       0.097   3.446 -25.623  0.00  0.00    +0.111 A 
ATOM      4  C   UNL     1      -1.176   3.647 -25.448  0.00  0.00    +0.028 A 
ATOM      5  C   UNL     1      -1.712   3.437 -24.283  0.00  0.00    -0.011 A 
ATOM      6  C   UNL     1      -2.984   3.638 -24.107  0.00  0.00    +0.058 A 
ATOM      7  C   UNL     1      -3.520   3.428 -22.941  0.00  0.00    +0.162 A 
ATOM      8  C   UNL     1      -2.784   3.017 -21.951  0.00  0.00    +0.162 A 
ATOM      9  C   UNL     1      -1.512   2.817 -22.128  0.00  0.00    +0.059 A 
ATOM     10  C   UNL     1      -0.976   3.027 -23.293  0.00  0.00    +0.007 A 
ENDROOT
BRANCH   8  11
ATOM     11  O   UNL     1      -3.320   2.808 -20.786  0.00  0.00    -0.491 OA
ATOM     12  C   UNL     1      -3.121   3.652 -19.817  0.00  0.00    +0.277 C 
ENDBRANCH   8  11
BRANCH   7  13
ATOM     13  O   UNL     1      -4.792   3.629 -22.766  0.00  0.00    -0.491 OA
ATOM     14  C   UNL     1      -5.562   3.854 -23.788  0.00  0.00    +0.277 C 
ENDBRANCH   7  13
BRANCH   1  15
ATOM     15  C   UNL     1       1.033   2.415 -22.478  0.00  0.00    +0.091 C 
BRANCH  15  19
ATOM     16  C   UNL     1       4.911   2.788 -22.647  0.00  0.00    +0.161 A 
ATOM     17  C   UNL     1       4.147   3.780 -22.998  0.00  0.00    +0.049 A 
ATOM     18  C   UNL     1       2.855   3.655 -22.941  0.00  0.00    +0.008 A 
ATOM     19  C   UNL     1       2.325   2.539 -22.534  0.00  0.00    -0.038 A 
ATOM     20  C   UNL     1       3.090   1.548 -22.184  0.00  0.00    +0.053 A 
ATOM     21  C   UNL     1       4.383   1.672 -22.240  0.00  0.00    +0.162 A 
BRANCH  16  23
ATOM     22  C   UNL     1       6.819   3.698 -21.870  0.00  0.00    +0.277 C 
ATOM     23  O   UNL     1       6.204   2.912 -22.703  0.00  0.00    -0.491 OA
ENDBRANCH  16  23
BRANCH  21  24
ATOM     24  O   UNL     1       5.147   0.681 -21.889  0.00  0.00    -0.491 OA
ATOM     25  C   UNL     1       5.047   0.173 -20.697  0.00  0.00    +0.277 C 
ENDBRANCH  21  24
ENDBRANCH  15  19
ENDBRANCH   1  15
TORSDOF 6
ENDMDL
MODEL 7
REMARK VINA RESULT:    -8.024      1.512      7.329
REMARK INTER + INTRA:         -11.388
REMARK INTER:                 -10.627
REMARK INTRA:                  -0.760
REMARK UNBOUND:                -0.549
REMARK  Name = ZINC000000056555
REMARK  10 active torsions:
REMARK  status: ('A' for Active; 'I' for Inactive)
REMARK    1  A    between atoms: C_1  and  O_2
REMARK    2  A    between atoms: O_2  and  C_3
REMARK    3  A    between atoms: C_6  and  C_7
REMARK    4  A    between atoms: C_7  and  C_8
REMARK    5  A    between atoms: C_14  and  O_15
REMARK    6  A    between atoms: O_15  and  C_16
REMARK    7  A    between atoms: C_17  and  O_18
REMARK    8  A    between atoms: O_18  and  C_19
REMARK    9  A    between atoms: C_23  and  O_24
REMARK   10  A    between atoms: O_24  and  C_25
REMARK                            x       y       z     vdW  Elec       q    Type
REMARK                         _______ _______ _______ _____ _____    ______ ____
ROOT
ATOM      1  C   UNL     1       1.975   3.526 -24.360  0.00  0.00    +0.053 A 
ATOM      2  N   UNL     1       1.691   2.365 -24.869  0.00  0.00    -0.259 NA
ATOM      3  C   UNL     1       2.575   1.411 -24.843  0.00  0.00    +0.111 A 
ATOM      4  C   UNL     1       3.742   1.619 -24.309  0.00  0.00    +0.028 A 
ATOM      5  C   UNL     1       4.025   2.781 -23.801  0.00  0.00    -0.011 A 
ATOM      6  C   UNL     1       5.191   2.990 -23.266  0.00  0.00    +0.058 A 
ATOM      7  C   UNL     1       5.474   4.153 -22.757  0.00  0.00    +0.162 A 
ATOM      8  C   UNL     1       4.591   5.106 -22.783  0.00  0.00    +0.162 A 
ATOM      9  C   UNL     1       3.424   4.897 -23.317  0.00  0.00    +0.059 A 
ATOM     10  C   UNL     1       3.141   3.735 -23.826  0.00  0.00    +0.007 A 
ENDROOT
BRANCH   8  11
ATOM     11  O   UNL     1       4.874   6.268 -22.274  0.00  0.00    -0.491 OA
ATOM     12  C   UNL     1       3.919   7.105 -21.994  0.00  0.00    +0.277 C 
ENDBRANCH   8  11
BRANCH   7  13
ATOM     13  O   UNL     1       6.641   4.361 -22.223  0.00  0.00    -0.491 OA
ATOM     14  C   UNL     1       7.708   4.347 -22.966  0.00  0.00    +0.277 C 
ENDBRANCH   7  13
BRANCH   1  15
ATOM     15  C   UNL     1       1.091   4.480 -24.385  0.00  0.00    +0.091 C 
BRANCH  15  19
ATOM     16  C   UNL     1      -2.686   3.654 -23.871  0.00  0.00    +0.161 A 
ATOM     17  C   UNL     1      -2.168   3.612 -25.063  0.00  0.00    +0.049 A 
ATOM     18  C   UNL     1      -0.909   3.888 -25.234  0.00  0.00    +0.008 A 
ATOM     19  C   UNL     1      -0.168   4.205 -24.214  0.00  0.00    -0.038 A 
ATOM     20  C   UNL     1      -0.686   4.246 -23.022  0.00  0.00    +0.053 A 
ATOM     21  C   UNL     1      -1.945   3.971 -22.851  0.00  0.00    +0.162 A 
BRANCH  16  23
ATOM     22  C   UNL     1      -4.840   3.918 -24.472  0.00  0.00    +0.277 C 
ATOM     23  O   UNL     1      -3.944   3.379 -23.699  0.00  0.00    -0.491 OA
ENDBRANCH  16  23
BRANCH  21  24
ATOM     24  O   UNL     1      -2.463   4.012 -21.659  0.00  0.00    -0.491 OA
ATOM     25  C   UNL     1      -2.206   3.066 -20.806  0.00  0.00    +0.277 C 
ENDBRANCH  21  24
ENDBRANCH  15  19
ENDBRANCH   1  15
TORSDOF 6
ENDMDL
MODEL 8
REMARK VINA RESULT:    -7.351      1.608      7.550
REMARK INTER + INTRA:         -10.478
REMARK INTER:                  -9.929
REMARK INTRA:                  -0.549
REMARK UNBOUND:                -0.549
REMARK  Name = ZINC000000056555
REMARK  10 active torsions:
REMARK  status: ('A' for Active; 'I' for Inactive)
REMARK    1  A    between atoms: C_1  and  O_2
REMARK    2  A    between atoms: O_2  and  C_3
REMARK    3  A    between atoms: C_6  and  C_7
REMARK    4  A    between atoms: C_7  and  C_8
REMARK    5  A    between atoms: C_14  and  O_15
REMARK    6  A    between atoms: O_15  and  C_16
REMARK    7  A    between atoms: C_17  and  O_18
REMARK    8  A    between atoms: O_18  and  C_19
REMARK    9  A    between atoms: C_23  and  O_24
REMARK   10  A    between atoms: O_24  and  C_25
REMARK                            x       y       z     vdW  Elec       q    Type
REMARK                         _______ _______ _______ _____ _____    ______ ____
ROOT
ATOM      1  C   UNL     1       1.569   3.728 -23.195  0.00  0.00    +0.053 A 
ATOM      2  N   UNL     1       1.182   4.953 -23.388  0.00  0.00    -0.259 NA
ATOM      3  C   UNL     1       2.048   5.921 -23.356  0.00  0.00    +0.111 A 
ATOM      4  C   UNL     1       3.303   5.665 -23.130  0.00  0.00    +0.028 A 
ATOM      5  C   UNL     1       3.690   4.439 -22.936  0.00  0.00    -0.011 A 
ATOM      6  C   UNL     1       4.944   4.181 -22.710  0.00  0.00    +0.058 A 
ATOM      7  C   UNL     1       5.331   2.955 -22.516  0.00  0.00    +0.162 A 
ATOM      8  C   UNL     1       4.464   1.987 -22.549  0.00  0.00    +0.162 A 
ATOM      9  C   UNL     1       3.210   2.245 -22.775  0.00  0.00    +0.059 A 
ATOM     10  C   UNL     1       2.823   3.471 -22.969  0.00  0.00    +0.007 A 
ENDROOT
BRANCH   8  11
ATOM     11  O   UNL     1       4.851   0.761 -22.355  0.00  0.00    -0.491 OA
ATOM     12  C   UNL     1       4.646   0.188 -21.206  0.00  0.00    +0.277 C 
ENDBRANCH   8  11
BRANCH   7  13
ATOM     13  O   UNL     1       6.585   2.698 -22.290  0.00  0.00    -0.491 OA
ATOM     14  C   UNL     1       7.488   3.601 -22.534  0.00  0.00    +0.277 C 
ENDBRANCH   7  13
BRANCH   1  15
ATOM     15  C   UNL     1       0.702   2.759 -23.227  0.00  0.00    +0.091 C 
BRANCH  15  19
ATOM     16  C   UNL     1      -2.938   3.440 -24.452  0.00  0.00    +0.161 A 
ATOM     17  C   UNL     1      -1.949   3.485 -25.295  0.00  0.00    +0.049 A 
ATOM     18  C   UNL     1      -0.736   3.258 -24.887  0.00  0.00    +0.008 A 
ATOM     19  C   UNL     1      -0.511   2.986 -23.635  0.00  0.00    -0.038 A 
ATOM     20  C   UNL     1      -1.500   2.941 -22.793  0.00  0.00    +0.053 A 
ATOM     21  C   UNL     1      -2.713   3.168 -23.201  0.00  0.00    +0.162 A 
BRANCH  16  23
ATOM     22  C   UNL     1      -4.579   3.125 -25.961  0.00  0.00    +0.277 C 
ATOM     23  O   UNL     1      -4.150   3.667 -24.860  0.00  0.00    -0.491 OA
ENDBRANCH  16  23
BRANCH  21  24
ATOM     24  O   UNL     1      -3.702   3.123 -22.358  0.00  0.00    -0.491 OA
ATOM     25  C   UNL     1      -3.651   2.318 -21.339  0.00  0.00    +0.277 C 
ENDBRANCH  21  24
ENDBRANCH  15  19
ENDBRANCH   1  15
TORSDOF 6
ENDMDL
MODEL 9
REMARK VINA RESULT:    -7.237      1.290      1.985
REMARK INTER + INTRA:         -10.324
REMARK INTER:                  -9.753
REMARK INTRA:                  -0.571
REMARK UNBOUND:                -0.549
REMARK  Name = ZINC000000056555
REMARK  10 active torsions:
REMARK  status: ('A' for Active; 'I' for Inactive)
REMARK    1  A    between atoms: C_1  and  O_2
REMARK    2  A    between atoms: O_2  and  C_3
REMARK    3  A    between atoms: C_6  and  C_7
REMARK    4  A    between atoms: C_7  and  C_8
REMARK    5  A    between atoms: C_14  and  O_15
REMARK    6  A    between atoms: O_15  and  C_16
REMARK    7  A    between atoms: C_17  and  O_18
REMARK    8  A    between atoms: O_18  and  C_19
REMARK    9  A    between atoms: C_23  and  O_24
REMARK   10  A    between atoms: O_24  and  C_25
REMARK                            x       y       z     vdW  Elec       q    Type
REMARK                         _______ _______ _______ _____ _____    ______ ____
ROOT
ATOM      1  C   UNL     1      -0.445   2.547 -23.074  0.00  0.00    +0.053 A 
ATOM      2  N   UNL     1      -0.307   2.118 -21.855  0.00  0.00    -0.259 NA
ATOM      3  C   UNL     1      -1.322   2.133 -21.043  0.00  0.00    +0.111 A 
ATOM      4  C   UNL     1      -2.475   2.577 -21.449  0.00  0.00    +0.028 A 
ATOM      5  C   UNL     1      -2.612   3.006 -22.668  0.00  0.00    -0.011 A 
ATOM      6  C   UNL     1      -3.764   3.450 -23.075  0.00  0.00    +0.058 A 
ATOM      7  C   UNL     1      -3.901   3.879 -24.295  0.00  0.00    +0.162 A 
ATOM      8  C   UNL     1      -2.887   3.864 -25.107  0.00  0.00    +0.162 A 
ATOM      9  C   UNL     1      -1.734   3.420 -24.700  0.00  0.00    +0.059 A 
ATOM     10  C   UNL     1      -1.597   2.991 -23.480  0.00  0.00    +0.007 A 
ENDROOT
BRANCH   8  11
ATOM     11  O   UNL     1      -3.024   4.293 -26.326  0.00  0.00    -0.491 OA
ATOM     12  C   UNL     1      -3.038   3.448 -27.315  0.00  0.00    +0.277 C 
ENDBRANCH   8  11
BRANCH   7  13
ATOM     13  O   UNL     1      -5.053   4.322 -24.701  0.00  0.00    -0.491 OA
ATOM     14  C   UNL     1      -5.928   3.499 -25.198  0.00  0.00    +0.277 C 
ENDBRANCH   7  13
BRANCH   1  15
ATOM     15  C   UNL     1       0.570   2.533 -23.887  0.00  0.00    +0.091 C 
BRANCH  15  19
ATOM     16  C   UNL     1       4.011   3.962 -22.736  0.00  0.00    +0.161 A 
ATOM     17  C   UNL     1       3.195   4.706 -23.421  0.00  0.00    +0.049 A 
ATOM     18  C   UNL     1       2.048   4.230 -23.805  0.00  0.00    +0.008 A 
ATOM     19  C   UNL     1       1.717   3.009 -23.503  0.00  0.00    -0.038 A 
ATOM     20  C   UNL     1       2.534   2.265 -22.818  0.00  0.00    +0.053 A 
ATOM     21  C   UNL     1       3.681   2.741 -22.434  0.00  0.00    +0.162 A 
BRANCH  16  23
ATOM     22  C   UNL     1       6.106   4.632 -23.221  0.00  0.00    +0.277 C 
ATOM     23  O   UNL     1       5.158   4.438 -22.352  0.00  0.00    -0.491 OA
ENDBRANCH  16  23
BRANCH  21  24
ATOM     24  O   UNL     1       4.497   1.997 -21.749  0.00  0.00    -0.491 OA
ATOM     25  C   UNL     1       5.096   0.994 -22.319  0.00  0.00    +0.277 C 
ENDBRANCH  21  24
ENDBRANCH  15  19
ENDBRANCH   1  15
TORSDOF 6
ENDMDL
