MODEL 1
REMARK VINA RESULT:    -5.958      0.000      0.000
REMARK INTER + INTRA:          -8.016
REMARK INTER:                  -7.343
REMARK INTRA:                  -0.673
REMARK UNBOUND:                -0.665
REMARK  Name = ZINC000000338209
REMARK  6 active torsions:
REMARK  status: ('A' for Active; 'I' for Inactive)
REMARK    1  A    between atoms: C_1  and  C_2
REMARK    2  A    between atoms: C_2  and  O_3
REMARK    3  A    between atoms: O_3  and  C_4
REMARK    4  A    between atoms: C_4  and  C_6
REMARK    5  A    between atoms: C_9  and  O_10
REMARK    6  A    between atoms: C_12  and  O_13
REMARK                            x       y       z     vdW  Elec       q    Type
REMARK                         _______ _______ _______ _____ _____    ______ ____
ROOT
ATOM      1  C   UNL     1      -1.809   2.719 -22.486  0.00  0.00    +0.100 A 
ATOM      2  C   UNL     1      -2.248   3.111 -21.327  0.00  0.00    +0.022 A 
ATOM      3  C   UNL     1      -3.490   3.467 -21.188  0.00  0.00    +0.046 A 
ATOM      4  C   UNL     1      -4.295   3.431 -22.210  0.00  0.00    +0.120 A 
ATOM      5  C   UNL     1      -3.855   3.039 -23.369  0.00  0.00    +0.091 A 
ATOM      6  C   UNL     1      -2.613   2.683 -23.507  0.00  0.00    +0.134 A 
ENDROOT
BRANCH   1   7
ATOM      7  C   UNL     1      -0.566   2.363 -22.624  0.00  0.00    +0.343 C 
ATOM      8  O   UNL     1      -0.233   1.111 -22.513  0.00  0.00    -0.245 OA
BRANCH   7   9
ATOM      9  O   UNL     1       0.342   3.258 -22.874  0.00  0.00    -0.461 OA
BRANCH   9  11
ATOM     10  C   UNL     1       0.980   3.939 -24.923  0.00  0.00    +0.048 C 
ATOM     11  C   UNL     1       1.113   3.131 -23.913  0.00  0.00    +0.229 C 
ENDBRANCH   9  11
ENDBRANCH   7   9
ENDBRANCH   1   7
BRANCH   4  12
ATOM     12  O   UNL     1      -5.537   3.787 -22.071  0.00  0.00    -0.507 OA
ATOM     13  H   UNL     1      -5.772   4.693 -22.114  0.00  0.00    +0.292 HD
ENDBRANCH   4  12
BRANCH   6  14
ATOM     14  O   UNL     1      -2.174   2.291 -24.666  0.00  0.00    -0.506 OA
ATOM     15  H   UNL     1      -2.776   2.116 -25.361  0.00  0.00    +0.292 HD
ENDBRANCH   6  14
TORSDOF 5
ENDMDL
MODEL 2
REMARK VINA RESULT:    -5.952      1.805      2.190
REMARK INTER + INTRA:          -8.009
REMARK INTER:                  -7.368
REMARK INTRA:                  -0.641
REMARK UNBOUND:                -0.665
REMARK  Name = ZINC000000338209
REMARK  6 active torsions:
REMARK  status: ('A' for Active; 'I' for Inactive)
REMARK    1  A    between atoms: C_1  and  C_2
REMARK    2  A    between atoms: C_2  and  O_3
REMARK    3  A    between atoms: O_3  and  C_4
REMARK    4  A    between atoms: C_4  and  C_6
REMARK    5  A    between atoms: C_9  and  O_10
REMARK    6  A    between atoms: C_12  and  O_13
REMARK                            x       y       z     vdW  Elec       q    Type
REMARK                         _______ _______ _______ _____ _____    ______ ____
ROOT
ATOM      1  C   UNL     1      -1.861   3.197 -23.977  0.00  0.00    +0.100 A 
ATOM      2  C   UNL     1      -2.975   3.377 -23.332  0.00  0.00    +0.022 A 
ATOM      3  C   UNL     1      -4.046   3.741 -23.972  0.00  0.00    +0.046 A 
ATOM      4  C   UNL     1      -4.003   3.927 -25.259  0.00  0.00    +0.120 A 
ATOM      5  C   UNL     1      -2.889   3.747 -25.904  0.00  0.00    +0.091 A 
ATOM      6  C   UNL     1      -1.818   3.383 -25.264  0.00  0.00    +0.134 A 
ENDROOT
BRANCH   1   7
ATOM      7  C   UNL     1      -0.790   2.833 -23.338  0.00  0.00    +0.343 C 
ATOM      8  O   UNL     1      -0.497   1.571 -23.227  0.00  0.00    -0.245 OA
BRANCH   7   9
ATOM      9  O   UNL     1      -0.012   3.730 -22.808  0.00  0.00    -0.461 OA
BRANCH   9  11
ATOM     10  C   UNL     1       1.671   4.902 -23.738  0.00  0.00    +0.048 C 
ATOM     11  C   UNL     1       1.231   3.814 -23.179  0.00  0.00    +0.229 C 
ENDBRANCH   9  11
ENDBRANCH   7   9
ENDBRANCH   1   7
BRANCH   4  12
ATOM     12  O   UNL     1      -5.074   4.291 -25.899  0.00  0.00    -0.507 OA
ATOM     13  H   UNL     1      -5.139   5.159 -26.246  0.00  0.00    +0.292 HD
ENDBRANCH   4  12
BRANCH   6  14
ATOM     14  O   UNL     1      -0.704   3.203 -25.909  0.00  0.00    -0.506 OA
ATOM     15  H   UNL     1      -0.487   3.756 -26.633  0.00  0.00    +0.292 HD
ENDBRANCH   6  14
TORSDOF 5
ENDMDL
MODEL 3
REMARK VINA RESULT:    -5.811      1.357      1.948
REMARK INTER + INTRA:          -7.836
REMARK INTER:                  -7.328
REMARK INTRA:                  -0.508
REMARK UNBOUND:                -0.665
REMARK  Name = ZINC000000338209
REMARK  6 active torsions:
REMARK  status: ('A' for Active; 'I' for Inactive)
REMARK    1  A    between atoms: C_1  and  C_2
REMARK    2  A    between atoms: C_2  and  O_3
REMARK    3  A    between atoms: O_3  and  C_4
REMARK    4  A    between atoms: C_4  and  C_6
REMARK    5  A    between atoms: C_9  and  O_10
REMARK    6  A    between atoms: C_12  and  O_13
REMARK                            x       y       z     vdW  Elec       q    Type
REMARK                         _______ _______ _______ _____ _____    ______ ____
ROOT
ATOM      1  C   UNL     1      -2.372   3.153 -23.334  0.00  0.00    +0.100 A 
ATOM      2  C   UNL     1      -3.273   3.570 -24.173  0.00  0.00    +0.022 A 
ATOM      3  C   UNL     1      -4.507   3.707 -23.787  0.00  0.00    +0.046 A 
ATOM      4  C   UNL     1      -4.840   3.427 -22.561  0.00  0.00    +0.120 A 
ATOM      5  C   UNL     1      -3.938   3.010 -21.722  0.00  0.00    +0.091 A 
ATOM      6  C   UNL     1      -2.705   2.873 -22.108  0.00  0.00    +0.134 A 
ENDROOT
BRANCH   1   7
ATOM      7  C   UNL     1      -1.138   3.015 -23.720  0.00  0.00    +0.343 C 
ATOM      8  O   UNL     1      -0.540   1.869 -23.587  0.00  0.00    -0.245 OA
BRANCH   7   9
ATOM      9  O   UNL     1      -0.504   4.024 -24.238  0.00  0.00    -0.461 OA
BRANCH   9  11
ATOM     10  C   UNL     1       1.484   4.856 -23.585  0.00  0.00    +0.048 C 
ATOM     11  C   UNL     1       0.190   4.818 -23.476  0.00  0.00    +0.229 C 
ENDBRANCH   9  11
ENDBRANCH   7   9
ENDBRANCH   1   7
BRANCH   4  12
ATOM     12  O   UNL     1      -6.073   3.564 -22.175  0.00  0.00    -0.507 OA
ATOM     13  H   UNL     1      -6.343   4.349 -21.739  0.00  0.00    +0.292 HD
ENDBRANCH   4  12
BRANCH   6  14
ATOM     14  O   UNL     1      -1.803   2.455 -21.270  0.00  0.00    -0.506 OA
ATOM     15  H   UNL     1      -1.223   3.067 -20.864  0.00  0.00    +0.292 HD
ENDBRANCH   6  14
TORSDOF 5
ENDMDL
MODEL 4
REMARK VINA RESULT:    -5.594      1.525      4.619
REMARK INTER + INTRA:          -7.567
REMARK INTER:                  -7.005
REMARK INTRA:                  -0.562
REMARK UNBOUND:                -0.665
REMARK  Name = ZINC000000338209
REMARK  6 active torsions:
REMARK  status: ('A' for Active; 'I' for Inactive)
REMARK    1  A    between atoms: C_1  and  C_2
REMARK    2  A    between atoms: C_2  and  O_3
REMARK    3  A    between atoms: O_3  and  C_4
REMARK    4  A    between atoms: C_4  and  C_6
REMARK    5  A    between atoms: C_9  and  O_10
REMARK    6  A    between atoms: C_12  and  O_13
REMARK                            x       y       z     vdW  Elec       q    Type
REMARK                         _______ _______ _______ _____ _____    ______ ____
ROOT
ATOM      1  C   UNL     1      -0.943   3.181 -22.990  0.00  0.00    +0.100 A 
ATOM      2  C   UNL     1      -0.714   4.423 -23.297  0.00  0.00    +0.022 A 
ATOM      3  C   UNL     1       0.508   4.843 -23.440  0.00  0.00    +0.046 A 
ATOM      4  C   UNL     1       1.502   4.020 -23.275  0.00  0.00    +0.120 A 
ATOM      5  C   UNL     1       1.272   2.778 -22.968  0.00  0.00    +0.091 A 
ATOM      6  C   UNL     1       0.051   2.358 -22.825  0.00  0.00    +0.134 A 
ENDROOT
BRANCH   1   7
ATOM      7  C   UNL     1      -2.165   2.762 -22.848  0.00  0.00    +0.343 C 
ATOM      8  O   UNL     1      -3.006   2.862 -23.834  0.00  0.00    -0.245 OA
BRANCH   7   9
ATOM      9  O   UNL     1      -2.546   2.241 -21.719  0.00  0.00    -0.461 OA
BRANCH   9  11
ATOM     10  C   UNL     1      -3.155   3.734 -20.147  0.00  0.00    +0.048 C 
ATOM     11  C   UNL     1      -3.473   2.821 -21.016  0.00  0.00    +0.229 C 
ENDBRANCH   9  11
ENDBRANCH   7   9
ENDBRANCH   1   7
BRANCH   4  12
ATOM     12  O   UNL     1       2.724   4.440 -23.417  0.00  0.00    -0.507 OA
ATOM     13  H   UNL     1       2.895   5.229 -23.892  0.00  0.00    +0.292 HD
ENDBRANCH   4  12
BRANCH   6  14
ATOM     14  O   UNL     1      -0.179   1.116 -22.518  0.00  0.00    -0.506 OA
ATOM     15  H   UNL     1      -0.875   0.651 -22.937  0.00  0.00    +0.292 HD
ENDBRANCH   6  14
TORSDOF 5
ENDMDL
MODEL 5
REMARK VINA RESULT:    -5.574      2.030      4.558
REMARK INTER + INTRA:          -7.542
REMARK INTER:                  -6.904
REMARK INTRA:                  -0.638
REMARK UNBOUND:                -0.665
REMARK  Name = ZINC000000338209
REMARK  6 active torsions:
REMARK  status: ('A' for Active; 'I' for Inactive)
REMARK    1  A    between atoms: C_1  and  C_2
REMARK    2  A    between atoms: C_2  and  O_3
REMARK    3  A    between atoms: O_3  and  C_4
REMARK    4  A    between atoms: C_4  and  C_6
REMARK    5  A    between atoms: C_9  and  O_10
REMARK    6  A    between atoms: C_12  and  O_13
REMARK                            x       y       z     vdW  Elec       q    Type
REMARK                         _______ _______ _______ _____ _____    ______ ____
ROOT
ATOM      1  C   UNL     1      -0.963   4.056 -23.610  0.00  0.00    +0.100 A 
ATOM      2  C   UNL     1      -0.231   5.113 -23.422  0.00  0.00    +0.022 A 
ATOM      3  C   UNL     1       1.065   5.015 -23.423  0.00  0.00    +0.046 A 
ATOM      4  C   UNL     1       1.630   3.859 -23.612  0.00  0.00    +0.120 A 
ATOM      5  C   UNL     1       0.898   2.802 -23.799  0.00  0.00    +0.091 A 
ATOM      6  C   UNL     1      -0.398   2.899 -23.798  0.00  0.00    +0.134 A 
ENDROOT
BRANCH   1   7
ATOM      7  C   UNL     1      -2.259   4.153 -23.609  0.00  0.00    +0.343 C 
ATOM      8  O   UNL     1      -2.948   3.643 -22.631  0.00  0.00    -0.245 OA
BRANCH   7   9
ATOM      9  O   UNL     1      -2.865   4.761 -24.585  0.00  0.00    -0.461 OA
BRANCH   9  11
ATOM     10  C   UNL     1      -3.436   3.438 -26.316  0.00  0.00    +0.048 C 
ATOM     11  C   UNL     1      -3.775   4.137 -25.274  0.00  0.00    +0.229 C 
ENDBRANCH   9  11
ENDBRANCH   7   9
ENDBRANCH   1   7
BRANCH   4  12
ATOM     12  O   UNL     1       2.926   3.762 -23.613  0.00  0.00    -0.507 OA
ATOM     13  H   UNL     1       3.404   3.870 -22.815  0.00  0.00    +0.292 HD
ENDBRANCH   4  12
BRANCH   6  14
ATOM     14  O   UNL     1      -1.130   1.842 -23.986  0.00  0.00    -0.506 OA
ATOM     15  H   UNL     1      -1.602   1.735 -24.787  0.00  0.00    +0.292 HD
ENDBRANCH   6  14
TORSDOF 5
ENDMDL
MODEL 6
REMARK VINA RESULT:    -5.569      1.773      4.678
REMARK INTER + INTRA:          -7.537
REMARK INTER:                  -6.998
REMARK INTRA:                  -0.539
REMARK UNBOUND:                -0.665
REMARK  Name = ZINC000000338209
REMARK  6 active torsions:
REMARK  status: ('A' for Active; 'I' for Inactive)
REMARK    1  A    between atoms: C_1  and  C_2
REMARK    2  A    between atoms: C_2  and  O_3
REMARK    3  A    between atoms: O_3  and  C_4
REMARK    4  A    between atoms: C_4  and  C_6
REMARK    5  A    between atoms: C_9  and  O_10
REMARK    6  A    between atoms: C_12  and  O_13
REMARK                            x       y       z     vdW  Elec       q    Type
REMARK                         _______ _______ _______ _____ _____    ______ ____
ROOT
ATOM      1  C   UNL     1      -1.539   3.300 -23.229  0.00  0.00    +0.100 A 
ATOM      2  C   UNL     1      -1.783   3.757 -24.422  0.00  0.00    +0.022 A 
ATOM      3  C   UNL     1      -0.899   3.618 -25.364  0.00  0.00    +0.046 A 
ATOM      4  C   UNL     1       0.231   3.023 -25.114  0.00  0.00    +0.120 A 
ATOM      5  C   UNL     1       0.474   2.567 -23.922  0.00  0.00    +0.091 A 
ATOM      6  C   UNL     1      -0.410   2.705 -22.979  0.00  0.00    +0.134 A 
ENDROOT
BRANCH   1   7
ATOM      7  C   UNL     1      -2.423   3.439 -22.287  0.00  0.00    +0.343 C 
ATOM      8  O   UNL     1      -2.199   4.255 -21.300  0.00  0.00    -0.245 OA
BRANCH   7   9
ATOM      9  O   UNL     1      -3.531   2.761 -22.331  0.00  0.00    -0.461 OA
BRANCH   9  11
ATOM     10  C   UNL     1      -5.650   3.482 -22.577  0.00  0.00    +0.048 C 
ATOM     11  C   UNL     1      -4.619   3.257 -21.819  0.00  0.00    +0.229 C 
ENDBRANCH   9  11
ENDBRANCH   7   9
ENDBRANCH   1   7
BRANCH   4  12
ATOM     12  O   UNL     1       1.115   2.885 -26.057  0.00  0.00    -0.507 OA
ATOM     13  H   UNL     1       1.953   2.514 -25.862  0.00  0.00    +0.292 HD
ENDBRANCH   4  12
BRANCH   6  14
ATOM     14  O   UNL     1      -0.166   2.249 -21.787  0.00  0.00    -0.506 OA
ATOM     15  H   UNL     1      -0.538   1.435 -21.511  0.00  0.00    +0.292 HD
ENDBRANCH   6  14
TORSDOF 5
ENDMDL
MODEL 7
REMARK VINA RESULT:    -5.524      2.352      5.439
REMARK INTER + INTRA:          -7.481
REMARK INTER:                  -6.902
REMARK INTRA:                  -0.579
REMARK UNBOUND:                -0.665
REMARK  Name = ZINC000000338209
REMARK  6 active torsions:
REMARK  status: ('A' for Active; 'I' for Inactive)
REMARK    1  A    between atoms: C_1  and  C_2
REMARK    2  A    between atoms: C_2  and  O_3
REMARK    3  A    between atoms: O_3  and  C_4
REMARK    4  A    between atoms: C_4  and  C_6
REMARK    5  A    between atoms: C_9  and  O_10
REMARK    6  A    between atoms: C_12  and  O_13
REMARK                            x       y       z     vdW  Elec       q    Type
REMARK                         _______ _______ _______ _____ _____    ______ ____
ROOT
ATOM      1  C   UNL     1       1.106   3.637 -23.939  0.00  0.00    +0.100 A 
ATOM      2  C   UNL     1       2.179   2.903 -23.971  0.00  0.00    +0.022 A 
ATOM      3  C   UNL     1       3.321   3.406 -23.608  0.00  0.00    +0.046 A 
ATOM      4  C   UNL     1       3.392   4.643 -23.213  0.00  0.00    +0.120 A 
ATOM      5  C   UNL     1       2.319   5.377 -23.182  0.00  0.00    +0.091 A 
ATOM      6  C   UNL     1       1.176   4.874 -23.544  0.00  0.00    +0.134 A 
ENDROOT
BRANCH   1   7
ATOM      7  C   UNL     1      -0.036   3.134 -24.302  0.00  0.00    +0.343 C 
ATOM      8  O   UNL     1      -0.688   3.654 -25.299  0.00  0.00    -0.245 OA
BRANCH   7   9
ATOM      9  O   UNL     1      -0.527   2.111 -23.666  0.00  0.00    -0.461 OA
BRANCH   9  11
ATOM     10  C   UNL     1      -1.020   2.080 -21.469  0.00  0.00    +0.048 C 
ATOM     11  C   UNL     1      -1.378   2.293 -22.700  0.00  0.00    +0.229 C 
ENDBRANCH   9  11
ENDBRANCH   7   9
ENDBRANCH   1   7
BRANCH   4  12
ATOM     12  O   UNL     1       4.534   5.146 -22.851  0.00  0.00    -0.507 OA
ATOM     13  H   UNL     1       4.926   5.829 -23.358  0.00  0.00    +0.292 HD
ENDBRANCH   4  12
BRANCH   6  14
ATOM     14  O   UNL     1       0.103   5.607 -23.513  0.00  0.00    -0.506 OA
ATOM     15  H   UNL     1      -0.322   5.850 -24.310  0.00  0.00    +0.292 HD
ENDBRANCH   6  14
TORSDOF 5
ENDMDL
MODEL 8
REMARK VINA RESULT:    -5.502      1.789      2.196
REMARK INTER + INTRA:          -7.453
REMARK INTER:                  -6.836
REMARK INTRA:                  -0.617
REMARK UNBOUND:                -0.665
REMARK  Name = ZINC000000338209
REMARK  6 active torsions:
REMARK  status: ('A' for Active; 'I' for Inactive)
REMARK    1  A    between atoms: C_1  and  C_2
REMARK    2  A    between atoms: C_2  and  O_3
REMARK    3  A    between atoms: O_3  and  C_4
REMARK    4  A    between atoms: C_4  and  C_6
REMARK    5  A    between atoms: C_9  and  O_10
REMARK    6  A    between atoms: C_12  and  O_13
REMARK                            x       y       z     vdW  Elec       q    Type
REMARK                         _______ _______ _______ _____ _____    ______ ____
ROOT
ATOM      1  C   UNL     1       0.196   2.319 -22.927  0.00  0.00    +0.100 A 
ATOM      2  C   UNL     1      -0.311   2.112 -21.748  0.00  0.00    +0.022 A 
ATOM      3  C   UNL     1      -1.591   2.232 -21.560  0.00  0.00    +0.046 A 
ATOM      4  C   UNL     1      -2.366   2.559 -22.551  0.00  0.00    +0.120 A 
ATOM      5  C   UNL     1      -1.860   2.766 -23.731  0.00  0.00    +0.091 A 
ATOM      6  C   UNL     1      -0.580   2.646 -23.919  0.00  0.00    +0.134 A 
ENDROOT
BRANCH   1   7
ATOM      7  C   UNL     1       1.476   2.200 -23.115  0.00  0.00    +0.343 C 
ATOM      8  O   UNL     1       1.936   1.240 -23.862  0.00  0.00    -0.245 OA
BRANCH   7   9
ATOM      9  O   UNL     1       2.296   3.039 -22.557  0.00  0.00    -0.461 OA
BRANCH   9  11
ATOM     10  C   UNL     1       2.377   5.164 -23.300  0.00  0.00    +0.048 C 
ATOM     11  C   UNL     1       2.870   3.961 -23.272  0.00  0.00    +0.229 C 
ENDBRANCH   9  11
ENDBRANCH   7   9
ENDBRANCH   1   7
BRANCH   4  12
ATOM     12  O   UNL     1      -3.647   2.678 -22.363  0.00  0.00    -0.507 OA
ATOM     13  H   UNL     1      -4.015   2.496 -21.521  0.00  0.00    +0.292 HD
ENDBRANCH   4  12
BRANCH   6  14
ATOM     14  O   UNL     1      -0.073   2.854 -25.098  0.00  0.00    -0.506 OA
ATOM     15  H   UNL     1      -0.359   3.584 -25.609  0.00  0.00    +0.292 HD
ENDBRANCH   6  14
TORSDOF 5
ENDMDL
MODEL 9
REMARK VINA RESULT:    -5.367      4.552      5.930
REMARK INTER + INTRA:          -7.288
REMARK INTER:                  -6.622
REMARK INTRA:                  -0.665
REMARK UNBOUND:                -0.665
REMARK  Name = ZINC000000338209
REMARK  6 active torsions:
REMARK  status: ('A' for Active; 'I' for Inactive)
REMARK    1  A    between atoms: C_1  and  C_2
REMARK    2  A    between atoms: C_2  and  O_3
REMARK    3  A    between atoms: O_3  and  C_4
REMARK    4  A    between atoms: C_4  and  C_6
REMARK    5  A    between atoms: C_9  and  O_10
REMARK    6  A    between atoms: C_12  and  O_13
REMARK                            x       y       z     vdW  Elec       q    Type
REMARK                         _______ _______ _______ _____ _____    ______ ____
ROOT
ATOM      1  C   UNL     1       3.470   2.993 -23.476  0.00  0.00    +0.100 A 
ATOM      2  C   UNL     1       2.658   4.008 -23.500  0.00  0.00    +0.022 A 
ATOM      3  C   UNL     1       1.657   4.021 -24.329  0.00  0.00    +0.046 A 
ATOM      4  C   UNL     1       1.467   3.018 -25.135  0.00  0.00    +0.120 A 
ATOM      5  C   UNL     1       2.279   2.003 -25.111  0.00  0.00    +0.091 A 
ATOM      6  C   UNL     1       3.280   1.990 -24.282  0.00  0.00    +0.134 A 
ENDROOT
BRANCH   1   7
ATOM      7  C   UNL     1       4.471   2.980 -22.647  0.00  0.00    +0.343 C 
ATOM      8  O   UNL     1       5.654   3.336 -23.051  0.00  0.00    -0.245 OA
BRANCH   7   9
ATOM      9  O   UNL     1       4.288   2.611 -21.414  0.00  0.00    -0.461 OA
BRANCH   9  11
ATOM     10  C   UNL     1       4.291   0.441 -20.812  0.00  0.00    +0.048 C 
ATOM     11  C   UNL     1       4.916   1.573 -20.946  0.00  0.00    +0.229 C 
ENDBRANCH   9  11
ENDBRANCH   7   9
ENDBRANCH   1   7
BRANCH   4  12
ATOM     12  O   UNL     1       0.466   3.031 -25.964  0.00  0.00    -0.507 OA
ATOM     13  H   UNL     1       0.196   3.836 -26.358  0.00  0.00    +0.292 HD
ENDBRANCH   4  12
BRANCH   6  14
ATOM     14  O   UNL     1       4.092   0.975 -24.257  0.00  0.00    -0.506 OA
ATOM     15  H   UNL     1       5.000   1.106 -24.074  0.00  0.00    +0.292 HD
ENDBRANCH   6  14
TORSDOF 5
ENDMDL
