MODEL 1
REMARK VINA RESULT:   -10.467      0.000      0.000
REMARK INTER + INTRA:          -7.135
REMARK INTER:                 -10.403
REMARK INTRA:                   3.268
REMARK UNBOUND:                 3.944
REMARK  Name = ZINC000071404289
REMARK  5 active torsions:
REMARK  status: ('A' for Active; 'I' for Inactive)
REMARK    1  A    between atoms: C_1  and  C_2
REMARK    2  A    between atoms: C_2  and  O_4
REMARK    3  A    between atoms: O_4  and  C_5
REMARK    4  A    between atoms: C_9  and  C_10
REMARK    5  A    between atoms: C_19  and  C_20
REMARK                            x       y       z     vdW  Elec       q    Type
REMARK                         _______ _______ _______ _____ _____    ______ ____
ROOT
ATOM      1  C   UNL     1      -3.442   3.208 -23.093  0.00  0.00    +0.276 C 
ATOM      2  C   UNL     1      -2.130   2.954 -22.830  0.00  0.00    +0.155 A 
ATOM      3  O   UNL     1      -1.401   2.724 -21.801  0.00  0.00    -0.463 OA
ATOM      4  C   UNL     1      -0.197   2.557 -22.205  0.00  0.00    +0.199 A 
ATOM      5  C   UNL     1      -0.181   2.683 -23.479  0.00  0.00    -0.005 A 
ATOM      6  C   UNL     1       0.843   2.583 -24.242  0.00  0.00    +0.047 C 
ATOM      7  C   UNL     1      -1.378   2.928 -23.862  0.00  0.00    +0.044 A 
ATOM      8  C   UNL     1      -1.930   3.135 -24.962  0.00  0.00    +0.234 C 
ATOM      9  C   UNL     1      -3.170   3.325 -24.721  0.00  0.00    +0.032 C 
ATOM     10  C   UNL     1      -3.761   3.540 -25.831  0.00  0.00    +0.037 C 
ATOM     11  C   UNL     1      -2.885   3.483 -26.771  0.00  0.00    +0.336 C 
ATOM     12  O   UNL     1      -3.106   3.648 -28.021  0.00  0.00    -0.245 OA
ATOM     13  C   UNL     1      -4.982   3.739 -25.714  0.00  0.00    +0.045 C 
ATOM     14  C   UNL     1      -5.746   3.746 -24.473  0.00  0.00    +0.039 C 
ATOM     15  C   UNL     1      -5.555   3.561 -22.968  0.00  0.00    +0.155 C 
ATOM     16  O   UNL     1      -5.636   3.446 -21.695  0.00  0.00    -0.361 OA
ATOM     17  O   UNL     1      -1.751   3.232 -26.230  0.00  0.00    -0.449 OA
ATOM     18  C   UNL     1      -4.502   3.309 -22.278  0.00  0.00    +0.137 C 
ATOM     19  C   UNL     1      -4.147   3.161 -21.421  0.00  0.00    +0.048 C 
ENDROOT
BRANCH   1  20
ATOM     20  O   UNL     1      -2.931   2.973 -21.641  0.00  0.00    -0.451 OA
BRANCH  20  22
ATOM     21  C   UNL     1      -3.105   3.675 -19.498  0.00  0.00    +0.136 C 
ATOM     22  C   UNL     1      -2.750   3.919 -20.721  0.00  0.00    +0.305 C 
ATOM     23  O   UNL     1      -2.235   5.059 -21.008  0.00  0.00    -0.251 OA
ENDBRANCH  20  22
ENDBRANCH   1  20
TORSDOF 2
ENDMDL
MODEL 2
REMARK VINA RESULT:   -10.074      1.420      4.167
REMARK INTER + INTRA:          -6.720
REMARK INTER:                  -9.975
REMARK INTRA:                   3.255
REMARK UNBOUND:                 3.944
REMARK  Name = ZINC000071404289
REMARK  5 active torsions:
REMARK  status: ('A' for Active; 'I' for Inactive)
REMARK    1  A    between atoms: C_1  and  C_2
REMARK    2  A    between atoms: C_2  and  O_4
REMARK    3  A    between atoms: O_4  and  C_5
REMARK    4  A    between atoms: C_9  and  C_10
REMARK    5  A    between atoms: C_19  and  C_20
REMARK                            x       y       z     vdW  Elec       q    Type
REMARK                         _______ _______ _______ _____ _____    ______ ____
ROOT
ATOM      1  C   UNL     1      -2.053   3.096 -24.217  0.00  0.00    +0.276 C 
ATOM      2  C   UNL     1      -0.966   2.616 -23.550  0.00  0.00    +0.155 A 
ATOM      3  O   UNL     1       0.273   2.401 -23.795  0.00  0.00    -0.463 OA
ATOM      4  C   UNL     1       0.804   1.923 -22.732  0.00  0.00    +0.199 A 
ATOM      5  C   UNL     1      -0.103   1.843 -21.833  0.00  0.00    -0.005 A 
ATOM      6  C   UNL     1       0.046   1.411 -20.635  0.00  0.00    +0.047 C 
ATOM      7  C   UNL     1      -1.197   2.272 -22.342  0.00  0.00    +0.044 A 
ATOM      8  C   UNL     1      -2.367   2.416 -21.932  0.00  0.00    +0.234 C 
ATOM      9  C   UNL     1      -3.041   2.898 -22.905  0.00  0.00    +0.032 C 
ATOM     10  C   UNL     1      -4.244   3.056 -22.514  0.00  0.00    +0.037 C 
ATOM     11  C   UNL     1      -4.324   2.670 -21.289  0.00  0.00    +0.336 C 
ATOM     12  O   UNL     1      -5.376   2.680 -20.561  0.00  0.00    -0.245 OA
ATOM     13  C   UNL     1      -4.993   3.524 -23.387  0.00  0.00    +0.045 C 
ATOM     14  C   UNL     1      -4.621   3.885 -24.749  0.00  0.00    +0.039 C 
ATOM     15  C   UNL     1      -3.405   3.901 -25.676  0.00  0.00    +0.155 C 
ATOM     16  O   UNL     1      -2.543   4.007 -26.616  0.00  0.00    -0.361 OA
ATOM     17  O   UNL     1      -3.160   2.274 -20.931  0.00  0.00    -0.449 OA
ATOM     18  C   UNL     1      -2.189   3.545 -25.474  0.00  0.00    +0.137 C 
ATOM     19  C   UNL     1      -1.328   3.461 -25.842  0.00  0.00    +0.048 C 
ENDROOT
BRANCH   1  20
ATOM     20  O   UNL     1      -0.657   2.989 -24.899  0.00  0.00    -0.451 OA
BRANCH  20  22
ATOM     21  C   UNL     1       1.182   3.883 -25.865  0.00  0.00    +0.136 C 
ATOM     22  C   UNL     1       0.249   3.964 -24.969  0.00  0.00    +0.305 C 
ATOM     23  O   UNL     1       0.224   4.975 -24.179  0.00  0.00    -0.251 OA
ENDBRANCH  20  22
ENDBRANCH   1  20
TORSDOF 2
ENDMDL
MODEL 3
REMARK VINA RESULT:    -9.880      1.519      4.556
REMARK INTER + INTRA:          -6.514
REMARK INTER:                  -9.705
REMARK INTRA:                   3.192
REMARK UNBOUND:                 3.944
REMARK  Name = ZINC000071404289
REMARK  5 active torsions:
REMARK  status: ('A' for Active; 'I' for Inactive)
REMARK    1  A    between atoms: C_1  and  C_2
REMARK    2  A    between atoms: C_2  and  O_4
REMARK    3  A    between atoms: O_4  and  C_5
REMARK    4  A    between atoms: C_9  and  C_10
REMARK    5  A    between atoms: C_19  and  C_20
REMARK                            x       y       z     vdW  Elec       q    Type
REMARK                         _______ _______ _______ _____ _____    ______ ____
ROOT
ATOM      1  C   UNL     1      -1.745   2.891 -23.278  0.00  0.00    +0.276 C 
ATOM      2  C   UNL     1      -1.949   3.149 -24.600  0.00  0.00    +0.155 A 
ATOM      3  O   UNL     1      -1.244   3.220 -25.668  0.00  0.00    -0.463 OA
ATOM      4  C   UNL     1      -2.030   3.510 -26.637  0.00  0.00    +0.199 A 
ATOM      5  C   UNL     1      -3.217   3.617 -26.170  0.00  0.00    -0.005 A 
ATOM      6  C   UNL     1      -4.275   3.898 -26.836  0.00  0.00    +0.047 C 
ATOM      7  C   UNL     1      -3.163   3.393 -24.910  0.00  0.00    +0.044 A 
ATOM      8  C   UNL     1      -3.995   3.366 -23.981  0.00  0.00    +0.234 C 
ATOM      9  C   UNL     1      -3.348   3.082 -22.916  0.00  0.00    +0.032 C 
ATOM     10  C   UNL     1      -4.175   3.047 -21.946  0.00  0.00    +0.037 C 
ATOM     11  C   UNL     1      -5.347   3.310 -22.407  0.00  0.00    +0.336 C 
ATOM     12  O   UNL     1      -6.431   3.366 -21.728  0.00  0.00    -0.245 OA
ATOM     13  C   UNL     1      -3.649   2.777 -20.854  0.00  0.00    +0.045 C 
ATOM     14  C   UNL     1      -2.237   2.512 -20.610  0.00  0.00    +0.039 C 
ATOM     15  C   UNL     1      -0.906   2.430 -21.357  0.00  0.00    +0.155 C 
ATOM     16  O   UNL     1       0.303   2.308 -21.763  0.00  0.00    -0.361 OA
ATOM     17  O   UNL     1      -5.233   3.508 -23.667  0.00  0.00    -0.449 OA
ATOM     18  C   UNL     1      -0.626   2.598 -22.598  0.00  0.00    +0.137 C 
ATOM     19  C   UNL     1       0.048   2.603 -23.254  0.00  0.00    +0.048 C 
ENDROOT
BRANCH   1  20
ATOM     20  O   UNL     1      -0.572   2.880 -24.303  0.00  0.00    -0.451 OA
BRANCH  20  22
ATOM     21  C   UNL     1       1.425   3.602 -25.083  0.00  0.00    +0.136 C 
ATOM     22  C   UNL     1       0.304   3.868 -24.488  0.00  0.00    +0.305 C 
ATOM     23  O   UNL     1       0.072   5.067 -24.095  0.00  0.00    -0.251 OA
ENDBRANCH  20  22
ENDBRANCH   1  20
TORSDOF 2
ENDMDL
MODEL 4
REMARK VINA RESULT:    -9.628      1.339      2.268
REMARK INTER + INTRA:          -6.247
REMARK INTER:                  -9.593
REMARK INTRA:                   3.346
REMARK UNBOUND:                 3.944
REMARK  Name = ZINC000071404289
REMARK  5 active torsions:
REMARK  status: ('A' for Active; 'I' for Inactive)
REMARK    1  A    between atoms: C_1  and  C_2
REMARK    2  A    between atoms: C_2  and  O_4
REMARK    3  A    between atoms: O_4  and  C_5
REMARK    4  A    between atoms: C_9  and  C_10
REMARK    5  A    between atoms: C_19  and  C_20
REMARK                            x       y       z     vdW  Elec       q    Type
REMARK                         _______ _______ _______ _____ _____    ______ ____
ROOT
ATOM      1  C   UNL     1      -2.120   3.196 -22.588  0.00  0.00    +0.276 C 
ATOM      2  C   UNL     1      -0.851   3.220 -23.081  0.00  0.00    +0.155 A 
ATOM      3  O   UNL     1       0.337   3.029 -22.639  0.00  0.00    -0.463 OA
ATOM      4  C   UNL     1       1.149   3.200 -23.615  0.00  0.00    +0.199 A 
ATOM      5  C   UNL     1       0.466   3.496 -24.657  0.00  0.00    -0.005 A 
ATOM      6  C   UNL     1       0.927   3.739 -25.827  0.00  0.00    +0.047 C 
ATOM      7  C   UNL     1      -0.770   3.507 -24.322  0.00  0.00    +0.044 A 
ATOM      8  C   UNL     1      -1.845   3.726 -24.917  0.00  0.00    +0.234 C 
ATOM      9  C   UNL     1      -2.778   3.590 -24.054  0.00  0.00    +0.032 C 
ATOM     10  C   UNL     1      -3.891   3.808 -24.635  0.00  0.00    +0.037 C 
ATOM     11  C   UNL     1      -3.654   4.082 -25.870  0.00  0.00    +0.336 C 
ATOM     12  O   UNL     1      -4.528   4.357 -26.764  0.00  0.00    -0.245 OA
ATOM     13  C   UNL     1      -4.874   3.702 -23.883  0.00  0.00    +0.045 C 
ATOM     14  C   UNL     1      -4.851   3.366 -22.465  0.00  0.00    +0.039 C 
ATOM     15  C   UNL     1      -3.864   3.030 -21.348  0.00  0.00    +0.155 C 
ATOM     16  O   UNL     1      -3.237   2.730 -20.272  0.00  0.00    -0.361 OA
ATOM     17  O   UNL     1      -2.386   4.031 -26.042  0.00  0.00    -0.449 OA
ATOM     18  C   UNL     1      -2.584   2.938 -21.355  0.00  0.00    +0.137 C 
ATOM     19  C   UNL     1      -1.810   2.763 -20.852  0.00  0.00    +0.048 C 
ENDROOT
BRANCH   1  20
ATOM     20  O   UNL     1      -0.888   2.893 -21.685  0.00  0.00    -0.451 OA
BRANCH  20  22
ATOM     21  C   UNL     1       0.458   1.537 -20.474  0.00  0.00    +0.136 C 
ATOM     22  C   UNL     1      -0.369   1.686 -21.461  0.00  0.00    +0.305 C 
ATOM     23  O   UNL     1      -0.663   0.672 -22.190  0.00  0.00    -0.251 OA
ENDBRANCH  20  22
ENDBRANCH   1  20
TORSDOF 2
ENDMDL
MODEL 5
REMARK VINA RESULT:    -9.586      1.681      5.543
REMARK INTER + INTRA:          -6.203
REMARK INTER:                  -9.468
REMARK INTRA:                   3.265
REMARK UNBOUND:                 3.944
REMARK  Name = ZINC000071404289
REMARK  5 active torsions:
REMARK  status: ('A' for Active; 'I' for Inactive)
REMARK    1  A    between atoms: C_1  and  C_2
REMARK    2  A    between atoms: C_2  and  O_4
REMARK    3  A    between atoms: O_4  and  C_5
REMARK    4  A    between atoms: C_9  and  C_10
REMARK    5  A    between atoms: C_19  and  C_20
REMARK                            x       y       z     vdW  Elec       q    Type
REMARK                         _______ _______ _______ _____ _____    ______ ____
ROOT
ATOM      1  C   UNL     1      -0.823   3.203 -23.871  0.00  0.00    +0.276 C 
ATOM      2  C   UNL     1      -2.053   3.254 -23.289  0.00  0.00    +0.155 A 
ATOM      3  O   UNL     1      -3.231   3.649 -23.604  0.00  0.00    -0.463 OA
ATOM      4  C   UNL     1      -3.998   3.427 -22.602  0.00  0.00    +0.199 A 
ATOM      5  C   UNL     1      -3.297   2.897 -21.671  0.00  0.00    -0.005 A 
ATOM      6  C   UNL     1      -3.714   2.535 -20.515  0.00  0.00    +0.047 C 
ATOM      7  C   UNL     1      -2.095   2.792 -22.100  0.00  0.00    +0.044 A 
ATOM      8  C   UNL     1      -1.023   2.360 -21.628  0.00  0.00    +0.234 C 
ATOM      9  C   UNL     1      -0.134   2.515 -22.533  0.00  0.00    +0.032 C 
ATOM     10  C   UNL     1       0.975   2.081 -22.079  0.00  0.00    +0.037 C 
ATOM     11  C   UNL     1       0.779   1.652 -20.882  0.00  0.00    +0.336 C 
ATOM     12  O   UNL     1       1.662   1.143 -20.108  0.00  0.00    -0.245 OA
ATOM     13  C   UNL     1       1.916   2.185 -22.882  0.00  0.00    +0.045 C 
ATOM     14  C   UNL     1       1.852   2.734 -24.231  0.00  0.00    +0.039 C 
ATOM     15  C   UNL     1       0.850   3.350 -25.208  0.00  0.00    +0.155 C 
ATOM     16  O   UNL     1       0.204   3.882 -26.176  0.00  0.00    -0.361 OA
ATOM     17  O   UNL     1      -0.459   1.825 -20.605  0.00  0.00    -0.449 OA
ATOM     18  C   UNL     1      -0.405   3.589 -25.086  0.00  0.00    +0.137 C 
ATOM     19  C   UNL     1      -1.178   3.929 -25.498  0.00  0.00    +0.048 C 
ENDROOT
BRANCH   1  20
ATOM     20  O   UNL     1      -2.058   3.784 -24.622  0.00  0.00    -0.451 OA
BRANCH  20  22
ATOM     21  C   UNL     1      -3.308   3.756 -26.506  0.00  0.00    +0.136 C 
ATOM     22  C   UNL     1      -2.821   3.118 -25.488  0.00  0.00    +0.305 C 
ATOM     23  O   UNL     1      -3.087   1.871 -25.344  0.00  0.00    -0.251 OA
ENDBRANCH  20  22
ENDBRANCH   1  20
TORSDOF 2
ENDMDL
MODEL 6
REMARK VINA RESULT:    -9.554      1.463      3.946
REMARK INTER + INTRA:          -6.169
REMARK INTER:                  -9.435
REMARK INTRA:                   3.266
REMARK UNBOUND:                 3.944
REMARK  Name = ZINC000071404289
REMARK  5 active torsions:
REMARK  status: ('A' for Active; 'I' for Inactive)
REMARK    1  A    between atoms: C_1  and  C_2
REMARK    2  A    between atoms: C_2  and  O_4
REMARK    3  A    between atoms: O_4  and  C_5
REMARK    4  A    between atoms: C_9  and  C_10
REMARK    5  A    between atoms: C_19  and  C_20
REMARK                            x       y       z     vdW  Elec       q    Type
REMARK                         _______ _______ _______ _____ _____    ______ ____
ROOT
ATOM      1  C   UNL     1      -1.310   2.454 -22.638  0.00  0.00    +0.276 C 
ATOM      2  C   UNL     1      -2.514   2.911 -23.081  0.00  0.00    +0.155 A 
ATOM      3  O   UNL     1      -3.738   2.863 -22.704  0.00  0.00    -0.463 OA
ATOM      4  C   UNL     1      -4.438   3.502 -23.566  0.00  0.00    +0.199 A 
ATOM      5  C   UNL     1      -3.649   3.943 -24.473  0.00  0.00    -0.005 A 
ATOM      6  C   UNL     1      -3.980   4.630 -25.503  0.00  0.00    +0.047 C 
ATOM      7  C   UNL     1      -2.460   3.576 -24.170  0.00  0.00    +0.044 A 
ATOM      8  C   UNL     1      -1.332   3.721 -24.682  0.00  0.00    +0.234 C 
ATOM      9  C   UNL     1      -0.501   3.123 -23.918  0.00  0.00    +0.032 C 
ATOM     10  C   UNL     1       0.664   3.255 -24.417  0.00  0.00    +0.037 C 
ATOM     11  C   UNL     1       0.562   3.941 -25.501  0.00  0.00    +0.336 C 
ATOM     12  O   UNL     1       1.523   4.275 -26.277  0.00  0.00    -0.245 OA
ATOM     13  C   UNL     1       1.557   2.707 -23.750  0.00  0.00    +0.045 C 
ATOM     14  C   UNL     1       1.382   1.966 -22.507  0.00  0.00    +0.039 C 
ATOM     15  C   UNL     1       0.284   1.532 -21.536  0.00  0.00    +0.155 C 
ATOM     16  O   UNL     1      -0.452   1.064 -20.599  0.00  0.00    -0.361 OA
ATOM     17  O   UNL     1      -0.676   4.228 -25.663  0.00  0.00    -0.449 OA
ATOM     18  C   UNL     1      -0.983   1.735 -21.554  0.00  0.00    +0.137 C 
ATOM     19  C   UNL     1      -1.803   1.590 -21.119  0.00  0.00    +0.048 C 
ENDROOT
BRANCH   1  20
ATOM     20  O   UNL     1      -2.628   2.171 -21.857  0.00  0.00    -0.451 OA
BRANCH  20  22
ATOM     21  C   UNL     1      -4.023   2.398 -20.093  0.00  0.00    +0.136 C 
ATOM     22  C   UNL     1      -3.109   2.908 -20.857  0.00  0.00    +0.305 C 
ATOM     23  O   UNL     1      -2.696   4.101 -20.629  0.00  0.00    -0.251 OA
ENDBRANCH  20  22
ENDBRANCH   1  20
TORSDOF 2
ENDMDL
MODEL 7
REMARK VINA RESULT:    -8.920      1.629      2.372
REMARK INTER + INTRA:          -5.498
REMARK INTER:                  -8.701
REMARK INTRA:                   3.203
REMARK UNBOUND:                 3.944
REMARK  Name = ZINC000071404289
REMARK  5 active torsions:
REMARK  status: ('A' for Active; 'I' for Inactive)
REMARK    1  A    between atoms: C_1  and  C_2
REMARK    2  A    between atoms: C_2  and  O_4
REMARK    3  A    between atoms: O_4  and  C_5
REMARK    4  A    between atoms: C_9  and  C_10
REMARK    5  A    between atoms: C_19  and  C_20
REMARK                            x       y       z     vdW  Elec       q    Type
REMARK                         _______ _______ _______ _____ _____    ______ ____
ROOT
ATOM      1  C   UNL     1      -2.239   2.871 -23.070  0.00  0.00    +0.276 C 
ATOM      2  C   UNL     1      -1.424   2.300 -22.140  0.00  0.00    +0.155 A 
ATOM      3  O   UNL     1      -1.545   1.754 -20.987  0.00  0.00    -0.463 OA
ATOM      4  C   UNL     1      -0.377   1.397 -20.600  0.00  0.00    +0.199 A 
ATOM      5  C   UNL     1       0.463   1.721 -21.510  0.00  0.00    -0.005 A 
ATOM      6  C   UNL     1       1.729   1.526 -21.483  0.00  0.00    +0.047 C 
ATOM      7  C   UNL     1      -0.188   2.279 -22.461  0.00  0.00    +0.044 A 
ATOM      8  C   UNL     1       0.112   2.775 -23.566  0.00  0.00    +0.234 C 
ATOM      9  C   UNL     1      -0.976   3.188 -24.092  0.00  0.00    +0.032 C 
ATOM     10  C   UNL     1      -0.700   3.702 -25.226  0.00  0.00    +0.037 C 
ATOM     11  C   UNL     1       0.570   3.609 -25.410  0.00  0.00    +0.336 C 
ATOM     12  O   UNL     1       1.216   4.018 -26.437  0.00  0.00    -0.245 OA
ATOM     13  C   UNL     1      -1.693   4.140 -25.829  0.00  0.00    +0.045 C 
ATOM     14  C   UNL     1      -3.074   4.112 -25.365  0.00  0.00    +0.039 C 
ATOM     15  C   UNL     1      -3.909   3.649 -24.171  0.00  0.00    +0.155 C 
ATOM     16  O   UNL     1      -4.797   3.350 -23.298  0.00  0.00    -0.361 OA
ATOM     17  O   UNL     1       1.071   3.035 -24.381  0.00  0.00    -0.449 OA
ATOM     18  C   UNL     1      -3.566   3.067 -23.080  0.00  0.00    +0.137 C 
ATOM     19  C   UNL     1      -3.856   2.709 -22.261  0.00  0.00    +0.048 C 
ENDROOT
BRANCH   1  20
ATOM     20  O   UNL     1      -2.799   2.300 -21.734  0.00  0.00    -0.451 OA
BRANCH  20  22
ATOM     21  C   UNL     1      -4.152   2.543 -19.939  0.00  0.00    +0.136 C 
ATOM     22  C   UNL     1      -3.217   3.023 -20.696  0.00  0.00    +0.305 C 
ATOM     23  O   UNL     1      -2.721   4.176 -20.427  0.00  0.00    -0.251 OA
ENDBRANCH  20  22
ENDBRANCH   1  20
TORSDOF 2
ENDMDL
MODEL 8
REMARK VINA RESULT:    -8.845      1.636      4.442
REMARK INTER + INTRA:          -5.419
REMARK INTER:                  -8.822
REMARK INTRA:                   3.403
REMARK UNBOUND:                 3.944
REMARK  Name = ZINC000071404289
REMARK  5 active torsions:
REMARK  status: ('A' for Active; 'I' for Inactive)
REMARK    1  A    between atoms: C_1  and  C_2
REMARK    2  A    between atoms: C_2  and  O_4
REMARK    3  A    between atoms: O_4  and  C_5
REMARK    4  A    between atoms: C_9  and  C_10
REMARK    5  A    between atoms: C_19  and  C_20
REMARK                            x       y       z     vdW  Elec       q    Type
REMARK                         _______ _______ _______ _____ _____    ______ ____
ROOT
ATOM      1  C   UNL     1      -2.101   3.302 -23.518  0.00  0.00    +0.276 C 
ATOM      2  C   UNL     1      -1.160   3.420 -24.495  0.00  0.00    +0.155 A 
ATOM      3  O   UNL     1      -1.099   3.854 -25.700  0.00  0.00    -0.463 OA
ATOM      4  C   UNL     1       0.103   3.692 -26.113  0.00  0.00    +0.199 A 
ATOM      5  C   UNL     1       0.782   3.159 -25.167  0.00  0.00    -0.005 A 
ATOM      6  C   UNL     1       2.024   2.846 -25.204  0.00  0.00    +0.047 C 
ATOM      7  C   UNL     1      -0.002   2.992 -24.169  0.00  0.00    +0.044 A 
ATOM      8  C   UNL     1       0.120   2.529 -23.017  0.00  0.00    +0.234 C 
ATOM      9  C   UNL     1      -1.026   2.622 -22.460  0.00  0.00    +0.032 C 
ATOM     10  C   UNL     1      -0.932   2.155 -21.277  0.00  0.00    +0.037 C 
ATOM     11  C   UNL     1       0.281   1.766 -21.093  0.00  0.00    +0.336 C 
ATOM     12  O   UNL     1       0.752   1.242 -20.025  0.00  0.00    -0.245 OA
ATOM     13  C   UNL     1      -1.997   2.197 -20.639  0.00  0.00    +0.045 C 
ATOM     14  C   UNL     1      -3.275   2.712 -21.114  0.00  0.00    +0.039 C 
ATOM     15  C   UNL     1      -3.905   3.343 -22.356  0.00  0.00    +0.155 C 
ATOM     16  O   UNL     1      -4.638   3.875 -23.262  0.00  0.00    -0.361 OA
ATOM     17  O   UNL     1       0.930   1.999 -22.172  0.00  0.00    -0.449 OA
ATOM     18  C   UNL     1      -3.401   3.637 -23.498  0.00  0.00    +0.137 C 
ATOM     19  C   UNL     1      -3.557   3.998 -24.352  0.00  0.00    +0.048 C 
ENDROOT
BRANCH   1  20
ATOM     20  O   UNL     1      -2.442   3.913 -24.910  0.00  0.00    -0.451 OA
BRANCH  20  22
ATOM     21  C   UNL     1      -3.550   4.014 -26.878  0.00  0.00    +0.136 C 
ATOM     22  C   UNL     1      -3.139   3.309 -25.871  0.00  0.00    +0.305 C 
ATOM     23  O   UNL     1      -3.415   2.056 -25.829  0.00  0.00    -0.251 OA
ENDBRANCH  20  22
ENDBRANCH   1  20
TORSDOF 2
ENDMDL
MODEL 9
REMARK VINA RESULT:    -8.522      2.597      5.336
REMARK INTER + INTRA:          -5.077
REMARK INTER:                  -9.020
REMARK INTRA:                   3.944
REMARK UNBOUND:                 3.944
REMARK  Name = ZINC000071404289
REMARK  5 active torsions:
REMARK  status: ('A' for Active; 'I' for Inactive)
REMARK    1  A    between atoms: C_1  and  C_2
REMARK    2  A    between atoms: C_2  and  O_4
REMARK    3  A    between atoms: O_4  and  C_5
REMARK    4  A    between atoms: C_9  and  C_10
REMARK    5  A    between atoms: C_19  and  C_20
REMARK                            x       y       z     vdW  Elec       q    Type
REMARK                         _______ _______ _______ _____ _____    ______ ____
ROOT
ATOM      1  C   UNL     1       0.853   2.950 -23.743  0.00  0.00    +0.276 C 
ATOM      2  C   UNL     1       1.651   2.464 -22.752  0.00  0.00    +0.155 A 
ATOM      3  O   UNL     1       2.905   2.294 -22.547  0.00  0.00    -0.463 OA
ATOM      4  C   UNL     1       3.044   1.776 -21.384  0.00  0.00    +0.199 A 
ATOM      5  C   UNL     1       1.881   1.627 -20.871  0.00  0.00    -0.005 A 
ATOM      6  C   UNL     1       1.614   1.139 -19.716  0.00  0.00    +0.047 C 
ATOM      7  C   UNL     1       1.022   2.053 -21.719  0.00  0.00    +0.044 A 
ATOM      8  C   UNL     1      -0.222   2.146 -21.747  0.00  0.00    +0.234 C 
ATOM      9  C   UNL     1      -0.527   2.660 -22.877  0.00  0.00    +0.032 C 
ATOM     10  C   UNL     1      -1.796   2.768 -22.935  0.00  0.00    +0.037 C 
ATOM     11  C   UNL     1      -2.289   2.318 -21.834  0.00  0.00    +0.336 C 
ATOM     12  O   UNL     1      -3.530   2.265 -21.528  0.00  0.00    -0.245 OA
ATOM     13  C   UNL     1      -2.206   3.260 -23.999  0.00  0.00    +0.045 C 
ATOM     14  C   UNL     1      -1.391   3.699 -25.124  0.00  0.00    +0.039 C 
ATOM     15  C   UNL     1       0.073   3.793 -25.556  0.00  0.00    +0.155 C 
ATOM     16  O   UNL     1       1.207   3.968 -26.123  0.00  0.00    -0.361 OA
ATOM     17  O   UNL     1      -1.312   1.934 -21.101  0.00  0.00    -0.449 OA
ATOM     18  C   UNL     1       1.152   3.457 -24.948  0.00  0.00    +0.137 C 
ATOM     19  C   UNL     1       2.090   3.414 -24.988  0.00  0.00    +0.048 C 
ENDROOT
BRANCH   1  20
ATOM     20  O   UNL     1       2.403   2.912 -23.887  0.00  0.00    -0.451 OA
BRANCH  20  22
ATOM     21  C   UNL     1       2.735   5.026 -23.154  0.00  0.00    +0.136 C 
ATOM     22  C   UNL     1       3.233   3.911 -23.587  0.00  0.00    +0.305 C 
ATOM     23  O   UNL     1       4.506   3.800 -23.714  0.00  0.00    -0.251 OA
ENDBRANCH  20  22
ENDBRANCH   1  20
TORSDOF 2
ENDMDL
