MODEL 1
REMARK VINA RESULT:   -11.093      0.000      0.000
REMARK INTER + INTRA:         -11.399
REMARK INTER:                 -12.394
REMARK INTRA:                   0.995
REMARK UNBOUND:                 0.991
REMARK  Name = COc1c(O)cc2c(c1O)[C@@]13CCN[C@@H](C2)[C@H]1CCC(=O)C3                 ZINC000253504295
REMARK  4 active torsions:
REMARK  status: ('A' for Active; 'I' for Inactive)
REMARK    1  A    between atoms: C_1  and  O_2
REMARK    2  A    between atoms: O_2  and  C_3
REMARK    3  A    between atoms: C_4  and  O_5
REMARK    4  A    between atoms: C_9  and  O_10
REMARK                            x       y       z     vdW  Elec       q    Type
REMARK                         _______ _______ _______ _____ _____    ______ ____
ROOT
ATOM      1  C   UNL     1      -0.990   2.700 -24.029  0.00  0.00    +0.203 A 
ATOM      2  C   UNL     1      -1.201   3.245 -25.180  0.00  0.00    +0.162 A 
ATOM      3  C   UNL     1      -2.353   3.724 -25.495  0.00  0.00    +0.053 A 
ATOM      4  C   UNL     1      -3.548   3.649 -24.452  0.00  0.00    -0.031 A 
ATOM      5  C   UNL     1      -3.184   3.109 -23.421  0.00  0.00    +0.009 A 
ATOM      6  C   UNL     1      -3.686   2.931 -22.632  0.00  0.00    +0.019 C 
ATOM      7  C   UNL     1      -4.145   2.611 -21.536  0.00  0.00    +0.063 C 
ATOM      8  C   UNL     1      -5.378   2.914 -21.369  0.00  0.00    +0.130 C 
ATOM      9  N   UNL     1      -5.969   3.517 -22.385  0.00  0.00    +0.230 N 
ATOM     10  H   UNL     1      -6.709   2.886 -22.695  0.00  0.00    +0.202 HD
ATOM     11  H   UNL     1      -6.312   4.421 -22.059  0.00  0.00    +0.202 HD
ATOM     12  C   UNL     1      -5.230   3.721 -23.408  0.00  0.00    +0.071 C 
ATOM     13  C   UNL     1      -2.507   2.911 -23.437  0.00  0.00    +0.086 C 
ATOM     14  C   UNL     1      -2.521   3.456 -24.732  0.00  0.00    +0.134 C 
ATOM     15  O   UNL     1      -3.739   4.470 -26.277  0.00  0.00    -0.297 OA
ATOM     16  C   UNL     1      -3.464   3.959 -25.255  0.00  0.00    +0.075 C 
ATOM     17  C   UNL     1      -4.311   3.996 -24.731  0.00  0.00    +0.017 C 
ATOM     18  C   UNL     1      -4.414   3.428 -23.297  0.00  0.00    +0.049 C 
ATOM     19  C   UNL     1      -5.019   4.035 -24.311  0.00  0.00    +0.090 C 
ATOM     20  C   UNL     1      -1.909   2.616 -23.163  0.00  0.00    +0.166 A 
ENDROOT
BRANCH   1  22
ATOM     21  C   UNL     1       1.239   2.721 -23.472  0.00  0.00    +0.277 C 
ATOM     22  O   UNL     1       0.149   2.165 -23.570  0.00  0.00    -0.489 OA
ENDBRANCH   1  22
BRANCH   2  23
ATOM     23  O   UNL     1      -0.146   3.238 -25.927  0.00  0.00    -0.503 OA
ATOM     24  H   UNL     1       0.666   2.914 -25.590  0.00  0.00    +0.292 HD
ENDBRANCH   2  23
BRANCH  20  25
ATOM     25  O   UNL     1      -1.120   2.038 -22.351  0.00  0.00    -0.503 OA
ATOM     26  H   UNL     1      -1.389   1.253 -21.917  0.00  0.00    +0.292 HD
ENDBRANCH  20  25
TORSDOF 3
ENDMDL
MODEL 2
REMARK VINA RESULT:   -10.960      1.274      2.986
REMARK INTER + INTRA:         -11.251
REMARK INTER:                 -12.249
REMARK INTRA:                   0.998
REMARK UNBOUND:                 0.991
REMARK  Name = COc1c(O)cc2c(c1O)[C@@]13CCN[C@@H](C2)[C@H]1CCC(=O)C3                 ZINC000253504295
REMARK  4 active torsions:
REMARK  status: ('A' for Active; 'I' for Inactive)
REMARK    1  A    between atoms: C_1  and  O_2
REMARK    2  A    between atoms: O_2  and  C_3
REMARK    3  A    between atoms: C_4  and  O_5
REMARK    4  A    between atoms: C_9  and  O_10
REMARK                            x       y       z     vdW  Elec       q    Type
REMARK                         _______ _______ _______ _____ _____    ______ ____
ROOT
ATOM      1  C   UNL     1      -0.759   2.153 -22.899  0.00  0.00    +0.203 A 
ATOM      2  C   UNL     1      -1.041   1.947 -21.658  0.00  0.00    +0.162 A 
ATOM      3  C   UNL     1      -2.196   2.245 -21.172  0.00  0.00    +0.053 A 
ATOM      4  C   UNL     1      -3.304   2.881 -22.115  0.00  0.00    -0.031 A 
ATOM      5  C   UNL     1      -2.880   3.009 -23.251  0.00  0.00    +0.009 A 
ATOM      6  C   UNL     1      -3.323   3.360 -24.017  0.00  0.00    +0.019 C 
ATOM      7  C   UNL     1      -3.703   3.770 -25.112  0.00  0.00    +0.063 C 
ATOM      8  C   UNL     1      -4.906   4.209 -25.125  0.00  0.00    +0.130 C 
ATOM      9  N   UNL     1      -5.554   4.158 -23.975  0.00  0.00    +0.230 N 
ATOM     10  H   UNL     1      -5.761   5.125 -23.725  0.00  0.00    +0.202 HD
ATOM     11  H   UNL     1      -6.386   3.582 -24.107  0.00  0.00    +0.202 HD
ATOM     12  C   UNL     1      -4.893   3.674 -22.993  0.00  0.00    +0.071 C 
ATOM     13  C   UNL     1      -2.215   2.786 -23.323  0.00  0.00    +0.086 C 
ATOM     14  C   UNL     1      -2.312   2.481 -21.955  0.00  0.00    +0.134 C 
ATOM     15  O   UNL     1      -3.611   2.507 -20.164  0.00  0.00    -0.297 OA
ATOM     16  C   UNL     1      -3.273   2.662 -21.278  0.00  0.00    +0.075 C 
ATOM     17  C   UNL     1      -4.074   3.061 -21.719  0.00  0.00    +0.017 C 
ATOM     18  C   UNL     1      -4.082   3.437 -23.219  0.00  0.00    +0.049 C 
ATOM     19  C   UNL     1      -4.744   3.391 -22.068  0.00  0.00    +0.090 C 
ATOM     20  C   UNL     1      -1.608   2.658 -23.691  0.00  0.00    +0.166 A 
ENDROOT
BRANCH   1  22
ATOM     21  C   UNL     1       1.510   2.292 -23.225  0.00  0.00    +0.277 C 
ATOM     22  O   UNL     1       0.391   1.894 -23.534  0.00  0.00    -0.489 OA
ENDBRANCH   1  22
BRANCH   2  23
ATOM     23  O   UNL     1      -0.051   1.427 -21.009  0.00  0.00    -0.503 OA
ATOM     24  H   UNL     1       0.560   0.871 -21.451  0.00  0.00    +0.292 HD
ENDBRANCH   2  23
BRANCH  20  25
ATOM     25  O   UNL     1      -0.779   2.596 -24.653  0.00  0.00    -0.503 OA
ATOM     26  H   UNL     1       0.104   2.327 -24.492  0.00  0.00    +0.292 HD
ENDBRANCH  20  25
TORSDOF 3
ENDMDL
MODEL 3
REMARK VINA RESULT:   -10.407      1.777      3.196
REMARK INTER + INTRA:         -10.634
REMARK INTER:                 -11.664
REMARK INTRA:                   1.031
REMARK UNBOUND:                 0.991
REMARK  Name = COc1c(O)cc2c(c1O)[C@@]13CCN[C@@H](C2)[C@H]1CCC(=O)C3                 ZINC000253504295
REMARK  4 active torsions:
REMARK  status: ('A' for Active; 'I' for Inactive)
REMARK    1  A    between atoms: C_1  and  O_2
REMARK    2  A    between atoms: O_2  and  C_3
REMARK    3  A    between atoms: C_4  and  O_5
REMARK    4  A    between atoms: C_9  and  O_10
REMARK                            x       y       z     vdW  Elec       q    Type
REMARK                         _______ _______ _______ _____ _____    ______ ____
ROOT
ATOM      1  C   UNL     1      -1.787   2.918 -22.066  0.00  0.00    +0.203 A 
ATOM      2  C   UNL     1      -2.832   3.087 -21.330  0.00  0.00    +0.162 A 
ATOM      3  C   UNL     1      -3.980   3.364 -21.845  0.00  0.00    +0.053 A 
ATOM      4  C   UNL     1      -4.121   3.502 -23.420  0.00  0.00    -0.031 A 
ATOM      5  C   UNL     1      -3.047   3.313 -23.966  0.00  0.00    +0.009 A 
ATOM      6  C   UNL     1      -2.839   3.333 -24.895  0.00  0.00    +0.019 C 
ATOM      7  C   UNL     1      -2.361   3.310 -26.028  0.00  0.00    +0.063 C 
ATOM      8  C   UNL     1      -3.204   3.552 -26.962  0.00  0.00    +0.130 C 
ATOM      9  N   UNL     1      -4.445   3.786 -26.576  0.00  0.00    +0.230 N 
ATOM     10  H   UNL     1      -4.651   4.744 -26.861  0.00  0.00    +0.202 HD
ATOM     11  H   UNL     1      -5.049   3.090 -27.016  0.00  0.00    +0.202 HD
ATOM     12  C   UNL     1      -4.646   3.742 -25.315  0.00  0.00    +0.071 C 
ATOM     13  C   UNL     1      -2.528   3.173 -23.510  0.00  0.00    +0.086 C 
ATOM     14  C   UNL     1      -3.528   3.316 -22.534  0.00  0.00    +0.134 C 
ATOM     15  O   UNL     1      -5.667   3.741 -22.158  0.00  0.00    -0.297 OA
ATOM     16  C   UNL     1      -4.669   3.571 -22.754  0.00  0.00    +0.075 C 
ATOM     17  C   UNL     1      -4.935   3.693 -23.708  0.00  0.00    +0.017 C 
ATOM     18  C   UNL     1      -3.919   3.558 -24.865  0.00  0.00    +0.049 C 
ATOM     19  C   UNL     1      -5.171   3.796 -24.491  0.00  0.00    +0.090 C 
ATOM     20  C   UNL     1      -1.848   3.017 -23.327  0.00  0.00    +0.166 A 
ENDROOT
BRANCH   1  22
ATOM     21  C   UNL     1      -0.152   1.580 -21.163  0.00  0.00    +0.277 C 
ATOM     22  O   UNL     1      -0.541   2.628 -21.670  0.00  0.00    -0.489 OA
ENDBRANCH   1  22
BRANCH   2  23
ATOM     23  O   UNL     1      -2.574   2.947 -20.071  0.00  0.00    -0.503 OA
ATOM     24  H   UNL     1      -2.348   2.104 -19.729  0.00  0.00    +0.292 HD
ENDBRANCH   2  23
BRANCH  20  25
ATOM     25  O   UNL     1      -0.606   2.763 -23.428  0.00  0.00    -0.503 OA
ATOM     26  H   UNL     1      -0.300   2.190 -24.104  0.00  0.00    +0.292 HD
ENDBRANCH  20  25
TORSDOF 3
ENDMDL
MODEL 4
REMARK VINA RESULT:   -10.255      1.836      3.728
REMARK INTER + INTRA:         -10.463
REMARK INTER:                 -11.462
REMARK INTRA:                   0.999
REMARK UNBOUND:                 0.991
REMARK  Name = COc1c(O)cc2c(c1O)[C@@]13CCN[C@@H](C2)[C@H]1CCC(=O)C3                 ZINC000253504295
REMARK  4 active torsions:
REMARK  status: ('A' for Active; 'I' for Inactive)
REMARK    1  A    between atoms: C_1  and  O_2
REMARK    2  A    between atoms: O_2  and  C_3
REMARK    3  A    between atoms: C_4  and  O_5
REMARK    4  A    between atoms: C_9  and  O_10
REMARK                            x       y       z     vdW  Elec       q    Type
REMARK                         _______ _______ _______ _____ _____    ______ ____
ROOT
ATOM      1  C   UNL     1      -3.161   3.646 -25.544  0.00  0.00    +0.203 A 
ATOM      2  C   UNL     1      -4.284   3.860 -24.948  0.00  0.00    +0.162 A 
ATOM      3  C   UNL     1      -4.431   3.633 -23.688  0.00  0.00    +0.053 A 
ATOM      4  C   UNL     1      -3.207   3.077 -22.843  0.00  0.00    -0.031 A 
ATOM      5  C   UNL     1      -2.226   2.931 -23.553  0.00  0.00    +0.009 A 
ATOM      6  C   UNL     1      -1.360   2.615 -23.315  0.00  0.00    +0.019 C 
ATOM      7  C   UNL     1      -0.192   2.239 -23.224  0.00  0.00    +0.063 C 
ATOM      8  C   UNL     1       0.157   1.878 -22.046  0.00  0.00    +0.130 C 
ATOM      9  N   UNL     1      -0.775   1.961 -21.114  0.00  0.00    +0.230 N 
ATOM     10  H   UNL     1      -0.935   1.007 -20.790  0.00  0.00    +0.202 HD
ATOM     11  H   UNL     1      -0.437   2.590 -20.384  0.00  0.00    +0.202 HD
ATOM     12  C   UNL     1      -1.911   2.393 -21.510  0.00  0.00    +0.071 C 
ATOM     13  C   UNL     1      -2.342   3.111 -24.224  0.00  0.00    +0.086 C 
ATOM     14  C   UNL     1      -3.640   3.411 -23.777  0.00  0.00    +0.134 C 
ATOM     15  O   UNL     1      -5.011   3.453 -22.040  0.00  0.00    -0.297 OA
ATOM     16  C   UNL     1      -4.026   3.286 -22.658  0.00  0.00    +0.075 C 
ATOM     17  C   UNL     1      -3.374   2.943 -21.985  0.00  0.00    +0.017 C 
ATOM     18  C   UNL     1      -1.920   2.580 -22.364  0.00  0.00    +0.049 C 
ATOM     19  C   UNL     1      -2.848   2.659 -21.418  0.00  0.00    +0.090 C 
ATOM     20  C   UNL     1      -2.156   3.204 -24.915  0.00  0.00    +0.166 A 
ENDROOT
BRANCH   1  22
ATOM     21  C   UNL     1      -3.484   3.399 -27.805  0.00  0.00    +0.277 C 
ATOM     22  O   UNL     1      -2.868   3.836 -26.837  0.00  0.00    -0.489 OA
ENDBRANCH   1  22
BRANCH   2  23
ATOM     23  O   UNL     1      -5.190   4.310 -25.752  0.00  0.00    -0.503 OA
ATOM     24  H   UNL     1      -5.156   4.096 -26.664  0.00  0.00    +0.292 HD
ENDBRANCH   2  23
BRANCH  20  25
ATOM     25  O   UNL     1      -1.457   3.220 -25.977  0.00  0.00    -0.503 OA
ATOM     26  H   UNL     1      -0.560   3.491 -25.942  0.00  0.00    +0.292 HD
ENDBRANCH  20  25
TORSDOF 3
ENDMDL
MODEL 5
REMARK VINA RESULT:    -9.931      2.105      3.810
REMARK INTER + INTRA:         -10.101
REMARK INTER:                 -11.331
REMARK INTRA:                   1.230
REMARK UNBOUND:                 0.991
REMARK  Name = COc1c(O)cc2c(c1O)[C@@]13CCN[C@@H](C2)[C@H]1CCC(=O)C3                 ZINC000253504295
REMARK  4 active torsions:
REMARK  status: ('A' for Active; 'I' for Inactive)
REMARK    1  A    between atoms: C_1  and  O_2
REMARK    2  A    between atoms: O_2  and  C_3
REMARK    3  A    between atoms: C_4  and  O_5
REMARK    4  A    between atoms: C_9  and  O_10
REMARK                            x       y       z     vdW  Elec       q    Type
REMARK                         _______ _______ _______ _____ _____    ______ ____
ROOT
ATOM      1  C   UNL     1      -3.495   3.118 -21.742  0.00  0.00    +0.203 A 
ATOM      2  C   UNL     1      -4.544   3.385 -22.445  0.00  0.00    +0.162 A 
ATOM      3  C   UNL     1      -4.470   3.584 -23.715  0.00  0.00    +0.053 A 
ATOM      4  C   UNL     1      -3.060   3.502 -24.442  0.00  0.00    -0.031 A 
ATOM      5  C   UNL     1      -2.178   3.243 -23.640  0.00  0.00    +0.009 A 
ATOM      6  C   UNL     1      -1.246   3.135 -23.796  0.00  0.00    +0.019 C 
ATOM      7  C   UNL     1      -0.029   2.957 -23.775  0.00  0.00    +0.063 C 
ATOM      8  C   UNL     1       0.541   3.064 -24.917  0.00  0.00    +0.130 C 
ATOM      9  N   UNL     1      -0.251   3.346 -25.936  0.00  0.00    +0.230 N 
ATOM     10  H   UNL     1       0.053   4.254 -26.286  0.00  0.00    +0.202 HD
ATOM     11  H   UNL     1      -0.165   2.593 -26.620  0.00  0.00    +0.202 HD
ATOM     12  C   UNL     1      -1.490   3.476 -25.649  0.00  0.00    +0.071 C 
ATOM     13  C   UNL     1      -2.418   3.168 -22.981  0.00  0.00    +0.086 C 
ATOM     14  C   UNL     1      -3.673   3.443 -23.551  0.00  0.00    +0.134 C 
ATOM     15  O   UNL     1      -4.772   3.908 -25.415  0.00  0.00    -0.297 OA
ATOM     16  C   UNL     1      -3.870   3.661 -24.704  0.00  0.00    +0.075 C 
ATOM     17  C   UNL     1      -3.080   3.648 -25.313  0.00  0.00    +0.017 C 
ATOM     18  C   UNL     1      -1.651   3.358 -24.798  0.00  0.00    +0.049 C 
ATOM     19  C   UNL     1      -2.437   3.642 -25.830  0.00  0.00    +0.090 C 
ATOM     20  C   UNL     1      -2.350   3.042 -22.275  0.00  0.00    +0.166 A 
ENDROOT
BRANCH   1  22
ATOM     21  C   UNL     1      -3.327   3.730 -19.535  0.00  0.00    +0.277 C 
ATOM     22  O   UNL     1      -3.426   2.891 -20.424  0.00  0.00    -0.489 OA
ENDBRANCH   1  22
BRANCH   2  23
ATOM     23  O   UNL     1      -5.620   3.421 -21.728  0.00  0.00    -0.503 OA
ATOM     24  H   UNL     1      -5.581   3.712 -20.838  0.00  0.00    +0.292 HD
ENDBRANCH   2  23
BRANCH  20  25
ATOM     25  O   UNL     1      -1.820   2.780 -21.149  0.00  0.00    -0.503 OA
ATOM     26  H   UNL     1      -1.344   1.982 -21.031  0.00  0.00    +0.292 HD
ENDBRANCH  20  25
TORSDOF 3
ENDMDL
MODEL 6
REMARK VINA RESULT:    -9.910      2.204      4.020
REMARK INTER + INTRA:         -10.078
REMARK INTER:                 -11.080
REMARK INTRA:                   1.002
REMARK UNBOUND:                 0.991
REMARK  Name = COc1c(O)cc2c(c1O)[C@@]13CCN[C@@H](C2)[C@H]1CCC(=O)C3                 ZINC000253504295
REMARK  4 active torsions:
REMARK  status: ('A' for Active; 'I' for Inactive)
REMARK    1  A    between atoms: C_1  and  O_2
REMARK    2  A    between atoms: O_2  and  C_3
REMARK    3  A    between atoms: C_4  and  O_5
REMARK    4  A    between atoms: C_9  and  O_10
REMARK                            x       y       z     vdW  Elec       q    Type
REMARK                         _______ _______ _______ _____ _____    ______ ____
ROOT
ATOM      1  C   UNL     1      -4.324   3.297 -22.530  0.00  0.00    +0.203 A 
ATOM      2  C   UNL     1      -4.391   3.725 -23.745  0.00  0.00    +0.162 A 
ATOM      3  C   UNL     1      -3.364   3.706 -24.523  0.00  0.00    +0.053 A 
ATOM      4  C   UNL     1      -1.981   3.144 -23.983  0.00  0.00    -0.031 A 
ATOM      5  C   UNL     1      -2.087   2.782 -22.824  0.00  0.00    +0.009 A 
ATOM      6  C   UNL     1      -1.423   2.408 -22.253  0.00  0.00    +0.019 C 
ATOM      7  C   UNL     1      -0.730   1.917 -21.363  0.00  0.00    +0.063 C 
ATOM      8  C   UNL     1       0.486   1.697 -21.700  0.00  0.00    +0.130 C 
ATOM      9  N   UNL     1       0.813   2.025 -22.938  0.00  0.00    +0.230 N 
ATOM     10  H   UNL     1       1.519   2.757 -22.857  0.00  0.00    +0.202 HD
ATOM     11  H   UNL     1       1.147   1.184 -23.409  0.00  0.00    +0.202 HD
ATOM     12  C   UNL     1      -0.132   2.522 -23.642  0.00  0.00    +0.071 C 
ATOM     13  C   UNL     1      -2.737   2.873 -22.565  0.00  0.00    +0.086 C 
ATOM     14  C   UNL     1      -3.026   3.383 -23.842  0.00  0.00    +0.134 C 
ATOM     15  O   UNL     1      -2.224   3.842 -25.853  0.00  0.00    -0.297 OA
ATOM     16  C   UNL     1      -2.249   3.472 -24.738  0.00  0.00    +0.075 C 
ATOM     17  C   UNL     1      -1.317   3.159 -24.568  0.00  0.00    +0.017 C 
ATOM     18  C   UNL     1      -0.884   2.579 -23.201  0.00  0.00    +0.049 C 
ATOM     19  C   UNL     1      -0.543   2.905 -24.443  0.00  0.00    +0.090 C 
ATOM     20  C   UNL     1      -3.244   2.840 -22.054  0.00  0.00    +0.166 A 
ENDROOT
BRANCH   1  22
ATOM     21  C   UNL     1      -6.377   2.671 -21.713  0.00  0.00    +0.277 C 
ATOM     22  O   UNL     1      -5.303   3.258 -21.618  0.00  0.00    -0.489 OA
ENDBRANCH   1  22
BRANCH   2  23
ATOM     23  O   UNL     1      -5.572   4.152 -24.051  0.00  0.00    -0.503 OA
ATOM     24  H   UNL     1      -6.011   3.818 -24.809  0.00  0.00    +0.292 HD
ENDBRANCH   2  23
BRANCH  20  25
ATOM     25  O   UNL     1      -3.807   2.617 -20.935  0.00  0.00    -0.503 OA
ATOM     26  H   UNL     1      -4.689   2.899 -20.792  0.00  0.00    +0.292 HD
ENDBRANCH  20  25
TORSDOF 3
ENDMDL
MODEL 7
REMARK VINA RESULT:    -9.848      1.494      2.479
REMARK INTER + INTRA:         -10.009
REMARK INTER:                 -11.012
REMARK INTRA:                   1.002
REMARK UNBOUND:                 0.991
REMARK  Name = COc1c(O)cc2c(c1O)[C@@]13CCN[C@@H](C2)[C@H]1CCC(=O)C3                 ZINC000253504295
REMARK  4 active torsions:
REMARK  status: ('A' for Active; 'I' for Inactive)
REMARK    1  A    between atoms: C_1  and  O_2
REMARK    2  A    between atoms: O_2  and  C_3
REMARK    3  A    between atoms: C_4  and  O_5
REMARK    4  A    between atoms: C_9  and  O_10
REMARK                            x       y       z     vdW  Elec       q    Type
REMARK                         _______ _______ _______ _____ _____    ______ ____
ROOT
ATOM      1  C   UNL     1       0.762   1.790 -22.226  0.00  0.00    +0.203 A 
ATOM      2  C   UNL     1       1.064   2.273 -23.383  0.00  0.00    +0.162 A 
ATOM      3  C   UNL     1       0.188   2.874 -24.111  0.00  0.00    +0.053 A 
ATOM      4  C   UNL     1      -1.301   3.029 -23.580  0.00  0.00    -0.031 A 
ATOM      5  C   UNL     1      -1.419   2.521 -22.478  0.00  0.00    +0.009 A 
ATOM      6  C   UNL     1      -2.193   2.467 -21.927  0.00  0.00    +0.019 C 
ATOM      7  C   UNL     1      -3.059   2.288 -21.072  0.00  0.00    +0.063 C 
ATOM      8  C   UNL     1      -4.210   2.759 -21.378  0.00  0.00    +0.130 C 
ATOM      9  N   UNL     1      -4.297   3.359 -22.551  0.00  0.00    +0.230 N 
ATOM     10  H   UNL     1      -4.959   2.809 -23.100  0.00  0.00    +0.202 HD
ATOM     11  H   UNL     1      -4.598   4.321 -22.392  0.00  0.00    +0.202 HD
ATOM     12  C   UNL     1      -3.216   3.393 -23.233  0.00  0.00    +0.071 C 
ATOM     13  C   UNL     1      -0.819   2.237 -22.240  0.00  0.00    +0.086 C 
ATOM     14  C   UNL     1      -0.282   2.685 -23.459  0.00  0.00    +0.134 C 
ATOM     15  O   UNL     1      -0.695   3.735 -25.363  0.00  0.00    -0.297 OA
ATOM     16  C   UNL     1      -0.886   3.267 -24.302  0.00  0.00    +0.075 C 
ATOM     17  C   UNL     1      -1.851   3.451 -24.128  0.00  0.00    +0.017 C 
ATOM     18  C   UNL     1      -2.549   3.005 -22.823  0.00  0.00    +0.049 C 
ATOM     19  C   UNL     1      -2.650   3.611 -24.000  0.00  0.00    +0.090 C 
ATOM     20  C   UNL     1      -0.411   1.888 -21.759  0.00  0.00    +0.166 A 
ENDROOT
BRANCH   1  22
ATOM     21  C   UNL     1       2.674   1.505 -20.986  0.00  0.00    +0.277 C 
ATOM     22  O   UNL     1       1.565   1.146 -21.369  0.00  0.00    -0.489 OA
ENDBRANCH   1  22
BRANCH   2  23
ATOM     23  O   UNL     1       2.305   2.077 -23.688  0.00  0.00    -0.503 OA
ATOM     24  H   UNL     1       2.649   2.411 -24.494  0.00  0.00    +0.292 HD
ENDBRANCH   2  23
BRANCH  20  25
ATOM     25  O   UNL     1      -0.064   1.273 -20.702  0.00  0.00    -0.503 OA
ATOM     26  H   UNL     1       0.661   1.585 -20.196  0.00  0.00    +0.292 HD
ENDBRANCH  20  25
TORSDOF 3
ENDMDL
MODEL 8
REMARK VINA RESULT:    -9.757      2.479      5.219
REMARK INTER + INTRA:          -9.907
REMARK INTER:                 -11.021
REMARK INTRA:                   1.114
REMARK UNBOUND:                 0.991
REMARK  Name = COc1c(O)cc2c(c1O)[C@@]13CCN[C@@H](C2)[C@H]1CCC(=O)C3                 ZINC000253504295
REMARK  4 active torsions:
REMARK  status: ('A' for Active; 'I' for Inactive)
REMARK    1  A    between atoms: C_1  and  O_2
REMARK    2  A    between atoms: O_2  and  C_3
REMARK    3  A    between atoms: C_4  and  O_5
REMARK    4  A    between atoms: C_9  and  O_10
REMARK                            x       y       z     vdW  Elec       q    Type
REMARK                         _______ _______ _______ _____ _____    ______ ____
ROOT
ATOM      1  C   UNL     1      -2.900   3.200 -22.566  0.00  0.00    +0.203 A 
ATOM      2  C   UNL     1      -2.621   2.490 -21.526  0.00  0.00    +0.162 A 
ATOM      3  C   UNL     1      -1.446   1.995 -21.345  0.00  0.00    +0.053 A 
ATOM      4  C   UNL     1      -0.308   2.259 -22.421  0.00  0.00    -0.031 A 
ATOM      5  C   UNL     1      -0.733   2.944 -23.336  0.00  0.00    +0.009 A 
ATOM      6  C   UNL     1      -0.275   3.253 -24.111  0.00  0.00    +0.019 C 
ATOM      7  C   UNL     1       0.121   3.750 -25.164  0.00  0.00    +0.063 C 
ATOM      8  C   UNL     1       1.349   3.506 -25.435  0.00  0.00    +0.130 C 
ATOM      9  N   UNL     1       2.001   2.768 -24.555  0.00  0.00    +0.230 N 
ATOM     10  H   UNL     1       2.269   1.915 -25.047  0.00  0.00    +0.202 HD
ATOM     11  H   UNL     1       2.795   3.311 -24.215  0.00  0.00    +0.202 HD
ATOM     12  C   UNL     1       1.319   2.390 -23.542  0.00  0.00    +0.071 C 
ATOM     13  C   UNL     1      -1.411   3.120 -23.256  0.00  0.00    +0.086 C 
ATOM     14  C   UNL     1      -1.323   2.382 -22.064  0.00  0.00    +0.134 C 
ATOM     15  O   UNL     1      -0.010   1.171 -20.757  0.00  0.00    -0.297 OA
ATOM     16  C   UNL     1      -0.346   1.827 -21.672  0.00  0.00    +0.075 C 
ATOM     17  C   UNL     1       0.474   1.891 -22.236  0.00  0.00    +0.017 C 
ATOM     18  C   UNL     1       0.494   2.677 -23.567  0.00  0.00    +0.049 C 
ATOM     19  C   UNL     1       1.160   1.936 -22.690  0.00  0.00    +0.090 C 
ATOM     20  C   UNL     1      -2.027   3.439 -23.452  0.00  0.00    +0.166 A 
ENDROOT
BRANCH   1  22
ATOM     21  C   UNL     1      -5.188   3.405 -22.534  0.00  0.00    +0.277 C 
ATOM     22  O   UNL     1      -4.069   3.772 -22.881  0.00  0.00    -0.489 OA
ENDBRANCH   1  22
BRANCH   2  23
ATOM     23  O   UNL     1      -3.636   2.355 -20.737  0.00  0.00    -0.503 OA
ATOM     24  H   UNL     1      -4.165   3.098 -20.522  0.00  0.00    +0.292 HD
ENDBRANCH   2  23
BRANCH  20  25
ATOM     25  O   UNL     1      -2.867   4.116 -24.126  0.00  0.00    -0.503 OA
ATOM     26  H   UNL     1      -3.721   4.280 -23.779  0.00  0.00    +0.292 HD
ENDBRANCH  20  25
TORSDOF 3
ENDMDL
MODEL 9
REMARK VINA RESULT:    -9.687      2.890      3.972
REMARK INTER + INTRA:          -9.829
REMARK INTER:                 -10.820
REMARK INTRA:                   0.991
REMARK UNBOUND:                 0.991
REMARK  Name = COc1c(O)cc2c(c1O)[C@@]13CCN[C@@H](C2)[C@H]1CCC(=O)C3                 ZINC000253504295
REMARK  4 active torsions:
REMARK  status: ('A' for Active; 'I' for Inactive)
REMARK    1  A    between atoms: C_1  and  O_2
REMARK    2  A    between atoms: O_2  and  C_3
REMARK    3  A    between atoms: C_4  and  O_5
REMARK    4  A    between atoms: C_9  and  O_10
REMARK                            x       y       z     vdW  Elec       q    Type
REMARK                         _______ _______ _______ _____ _____    ______ ____
ROOT
ATOM      1  C   UNL     1       2.345   1.948 -22.963  0.00  0.00    +0.203 A 
ATOM      2  C   UNL     1       2.791   3.034 -23.497  0.00  0.00    +0.162 A 
ATOM      3  C   UNL     1       2.042   4.072 -23.636  0.00  0.00    +0.053 A 
ATOM      4  C   UNL     1       0.534   4.024 -23.141  0.00  0.00    -0.031 A 
ATOM      5  C   UNL     1       0.273   2.933 -22.664  0.00  0.00    +0.009 A 
ATOM      6  C   UNL     1      -0.548   2.626 -22.293  0.00  0.00    +0.019 C 
ATOM      7  C   UNL     1      -1.498   2.036 -21.780  0.00  0.00    +0.063 C 
ATOM      8  C   UNL     1      -2.569   2.734 -21.693  0.00  0.00    +0.130 C 
ATOM      9  N   UNL     1      -2.497   3.966 -22.162  0.00  0.00    +0.230 N 
ATOM     10  H   UNL     1      -3.157   4.011 -22.939  0.00  0.00    +0.202 HD
ATOM     11  H   UNL     1      -2.720   4.607 -21.400  0.00  0.00    +0.202 HD
ATOM     12  C   UNL     1      -1.363   4.306 -22.644  0.00  0.00    +0.071 C 
ATOM     13  C   UNL     1       0.821   2.489 -22.676  0.00  0.00    +0.086 C 
ATOM     14  C   UNL     1       1.501   3.560 -23.279  0.00  0.00    +0.134 C 
ATOM     15  O   UNL     1       1.356   5.651 -23.990  0.00  0.00    -0.297 OA
ATOM     16  C   UNL     1       1.030   4.626 -23.516  0.00  0.00    +0.075 C 
ATOM     17  C   UNL     1       0.075   4.770 -23.266  0.00  0.00    +0.017 C 
ATOM     18  C   UNL     1      -0.773   3.663 -22.598  0.00  0.00    +0.049 C 
ATOM     19  C   UNL     1      -0.713   4.904 -23.066  0.00  0.00    +0.090 C 
ATOM     20  C   UNL     1       1.151   1.860 -22.553  0.00  0.00    +0.166 A 
ENDROOT
BRANCH   1  22
ATOM     21  C   UNL     1       4.038   0.651 -22.108  0.00  0.00    +0.277 C 
ATOM     22  O   UNL     1       3.007   0.802 -22.757  0.00  0.00    -0.489 OA
ENDBRANCH   1  22
BRANCH   2  23
ATOM     23  O   UNL     1       4.030   2.934 -23.852  0.00  0.00    -0.503 OA
ATOM     24  H   UNL     1       4.391   3.538 -24.471  0.00  0.00    +0.292 HD
ENDBRANCH   2  23
BRANCH  20  25
ATOM     25  O   UNL     1       1.345   0.660 -22.180  0.00  0.00    -0.503 OA
ATOM     26  H   UNL     1       0.652   0.033 -22.243  0.00  0.00    +0.292 HD
ENDBRANCH  20  25
TORSDOF 3
ENDMDL
