MODEL 1
REMARK VINA RESULT:    -8.862      0.000      0.000
REMARK INTER + INTRA:          -9.945
REMARK INTER:                  -9.685
REMARK INTRA:                  -0.260
REMARK UNBOUND:                -0.306
REMARK  Name = ZINC000085340986
REMARK  3 active torsions:
REMARK  status: ('A' for Active; 'I' for Inactive)
REMARK    1  A    between atoms: C_1  and  C_2
REMARK    2  A    between atoms: C_13  and  C_14
REMARK    3  A    between atoms: C_16  and  O_17
REMARK                            x       y       z     vdW  Elec       q    Type
REMARK                         _______ _______ _______ _____ _____    ______ ____
ROOT
ATOM      1  C   UNL     1      -5.476   2.952 -21.303  0.00  0.00    +0.047 C 
ATOM      2  C   UNL     1      -4.437   3.022 -22.080  0.00  0.00    -0.008 A 
ATOM      3  C   UNL     1      -3.284   2.585 -21.665  0.00  0.00    +0.017 A 
ATOM      4  C   UNL     1      -2.245   2.656 -22.442  0.00  0.00    +0.009 A 
ATOM      5  C   UNL     1      -2.357   3.163 -23.634  0.00  0.00    +0.061 A 
ATOM      6  C   UNL     1      -3.508   3.600 -24.048  0.00  0.00    +0.080 A 
ATOM      7  N   UNL     1      -1.188   3.118 -24.201  0.00  0.00    -0.353 N 
ATOM      8  H   UNL     1      -0.973   3.435 -25.109  0.00  0.00    +0.166 HD
ATOM      9  C   UNL     1      -0.353   2.584 -23.360  0.00  0.00    +0.047 A 
ATOM     10  C   UNL     1       0.917   2.320 -23.444  0.00  0.00    +0.026 A 
ATOM     11  C   UNL     1       1.534   1.770 -22.440  0.00  0.00    +0.002 A 
ATOM     12  C   UNL     1       0.881   1.484 -21.353  0.00  0.00    +0.001 A 
ATOM     13  C   UNL     1      -0.390   1.748 -21.270  0.00  0.00    +0.010 A 
ATOM     14  C   UNL     1      -1.007   2.297 -22.273  0.00  0.00    +0.007 A 
ATOM     15  C   UNL     1      -4.549   3.529 -23.271  0.00  0.00    +0.132 A 
ENDROOT
BRANCH   6  16
ATOM     16  C   UNL     1      -3.621   4.107 -25.240  0.00  0.00    +0.264 C 
ATOM     17  O   UNL     1      -4.087   5.312 -25.391  0.00  0.00    -0.296 OA
ENDBRANCH   6  16
BRANCH  15  18
ATOM     18  O   UNL     1      -5.700   3.967 -23.686  0.00  0.00    -0.506 OA
ATOM     19  H   UNL     1      -6.183   3.480 -24.326  0.00  0.00    +0.292 HD
ENDBRANCH  15  18
TORSDOF 2
ENDMDL
MODEL 2
REMARK VINA RESULT:    -8.685      2.248      4.686
REMARK INTER + INTRA:          -9.753
REMARK INTER:                  -9.493
REMARK INTRA:                  -0.260
REMARK UNBOUND:                -0.306
REMARK  Name = ZINC000085340986
REMARK  3 active torsions:
REMARK  status: ('A' for Active; 'I' for Inactive)
REMARK    1  A    between atoms: C_1  and  C_2
REMARK    2  A    between atoms: C_13  and  C_14
REMARK    3  A    between atoms: C_16  and  O_17
REMARK                            x       y       z     vdW  Elec       q    Type
REMARK                         _______ _______ _______ _____ _____    ______ ____
ROOT
ATOM      1  C   UNL     1       1.198   1.483 -21.313  0.00  0.00    +0.047 C 
ATOM      2  C   UNL     1       0.284   2.000 -22.079  0.00  0.00    -0.008 A 
ATOM      3  C   UNL     1      -0.945   2.083 -21.660  0.00  0.00    +0.017 A 
ATOM      4  C   UNL     1      -1.858   2.601 -22.426  0.00  0.00    +0.009 A 
ATOM      5  C   UNL     1      -1.545   3.035 -23.610  0.00  0.00    +0.061 A 
ATOM      6  C   UNL     1      -0.317   2.953 -24.029  0.00  0.00    +0.080 A 
ATOM      7  N   UNL     1      -2.624   3.499 -24.167  0.00  0.00    -0.353 N 
ATOM      8  H   UNL     1      -2.687   3.894 -25.068  0.00  0.00    +0.166 HD
ATOM      9  C   UNL     1      -3.605   3.351 -23.327  0.00  0.00    +0.047 A 
ATOM     10  C   UNL     1      -4.868   3.650 -23.403  0.00  0.00    +0.026 A 
ATOM     11  C   UNL     1      -5.657   3.394 -22.402  0.00  0.00    +0.002 A 
ATOM     12  C   UNL     1      -5.184   2.839 -21.327  0.00  0.00    +0.001 A 
ATOM     13  C   UNL     1      -3.921   2.540 -21.251  0.00  0.00    +0.010 A 
ATOM     14  C   UNL     1      -3.131   2.796 -22.251  0.00  0.00    +0.007 A 
ATOM     15  C   UNL     1       0.598   2.435 -23.263  0.00  0.00    +0.132 A 
ENDROOT
BRANCH   6  16
ATOM     16  C   UNL     1      -0.003   3.387 -25.213  0.00  0.00    +0.264 C 
ATOM     17  O   UNL     1       0.925   4.288 -25.349  0.00  0.00    -0.296 OA
ENDBRANCH   6  16
BRANCH  15  18
ATOM     18  O   UNL     1       1.825   2.352 -23.682  0.00  0.00    -0.506 OA
ATOM     19  H   UNL     1       2.471   1.917 -23.158  0.00  0.00    +0.292 HD
ENDBRANCH  15  18
TORSDOF 2
ENDMDL
MODEL 3
REMARK VINA RESULT:    -8.679      2.796      5.366
REMARK INTER + INTRA:          -9.747
REMARK INTER:                  -9.485
REMARK INTRA:                  -0.262
REMARK UNBOUND:                -0.306
REMARK  Name = ZINC000085340986
REMARK  3 active torsions:
REMARK  status: ('A' for Active; 'I' for Inactive)
REMARK    1  A    between atoms: C_1  and  C_2
REMARK    2  A    between atoms: C_13  and  C_14
REMARK    3  A    between atoms: C_16  and  O_17
REMARK                            x       y       z     vdW  Elec       q    Type
REMARK                         _______ _______ _______ _____ _____    ______ ____
ROOT
ATOM      1  C   UNL     1       0.747   4.002 -25.502  0.00  0.00    +0.047 C 
ATOM      2  C   UNL     1       0.035   3.548 -24.513  0.00  0.00    -0.008 A 
ATOM      3  C   UNL     1      -1.248   3.757 -24.486  0.00  0.00    +0.017 A 
ATOM      4  C   UNL     1      -1.960   3.304 -23.497  0.00  0.00    +0.009 A 
ATOM      5  C   UNL     1      -1.389   2.642 -22.535  0.00  0.00    +0.061 A 
ATOM      6  C   UNL     1      -0.107   2.433 -22.562  0.00  0.00    +0.080 A 
ATOM      7  N   UNL     1      -2.308   2.303 -21.680  0.00  0.00    -0.353 N 
ATOM      8  H   UNL     1      -2.166   1.793 -20.850  0.00  0.00    +0.166 HD
ATOM      9  C   UNL     1      -3.446   2.756 -22.114  0.00  0.00    +0.047 A 
ATOM     10  C   UNL     1      -4.652   2.684 -21.631  0.00  0.00    +0.026 A 
ATOM     11  C   UNL     1      -5.642   3.232 -22.272  0.00  0.00    +0.002 A 
ATOM     12  C   UNL     1      -5.426   3.851 -23.395  0.00  0.00    +0.001 A 
ATOM     13  C   UNL     1      -4.221   3.922 -23.878  0.00  0.00    +0.010 A 
ATOM     14  C   UNL     1      -3.231   3.375 -23.237  0.00  0.00    +0.007 A 
ATOM     15  C   UNL     1       0.606   2.886 -23.551  0.00  0.00    +0.132 A 
ENDROOT
BRANCH   6  16
ATOM     16  C   UNL     1       0.465   1.771 -21.600  0.00  0.00    +0.264 C 
ATOM     17  O   UNL     1       1.153   0.701 -21.868  0.00  0.00    -0.296 OA
ENDBRANCH   6  16
BRANCH  15  18
ATOM     18  O   UNL     1       1.888   2.677 -23.577  0.00  0.00    -0.506 OA
ATOM     19  H   UNL     1       2.250   1.930 -23.140  0.00  0.00    +0.292 HD
ENDBRANCH  15  18
TORSDOF 2
ENDMDL
MODEL 4
REMARK VINA RESULT:    -8.504      1.738      3.010
REMARK INTER + INTRA:          -9.556
REMARK INTER:                  -9.229
REMARK INTRA:                  -0.327
REMARK UNBOUND:                -0.306
REMARK  Name = ZINC000085340986
REMARK  3 active torsions:
REMARK  status: ('A' for Active; 'I' for Inactive)
REMARK    1  A    between atoms: C_1  and  C_2
REMARK    2  A    between atoms: C_13  and  C_14
REMARK    3  A    between atoms: C_16  and  O_17
REMARK                            x       y       z     vdW  Elec       q    Type
REMARK                         _______ _______ _______ _____ _____    ______ ____
ROOT
ATOM      1  C   UNL     1      -5.183   4.140 -24.800  0.00  0.00    +0.047 C 
ATOM      2  C   UNL     1      -4.134   3.850 -24.091  0.00  0.00    -0.008 A 
ATOM      3  C   UNL     1      -2.948   3.937 -24.619  0.00  0.00    +0.017 A 
ATOM      4  C   UNL     1      -1.899   3.647 -23.909  0.00  0.00    +0.009 A 
ATOM      5  C   UNL     1      -2.033   3.269 -22.673  0.00  0.00    +0.061 A 
ATOM      6  C   UNL     1      -3.218   3.182 -22.145  0.00  0.00    +0.080 A 
ATOM      7  N   UNL     1      -0.848   3.041 -22.191  0.00  0.00    -0.353 N 
ATOM      8  H   UNL     1      -0.643   2.741 -21.275  0.00  0.00    +0.166 HD
ATOM      9  C   UNL     1       0.020   3.277 -23.129  0.00  0.00    +0.047 A 
ATOM     10  C   UNL     1       1.317   3.200 -23.154  0.00  0.00    +0.026 A 
ATOM     11  C   UNL     1       1.965   3.497 -24.241  0.00  0.00    +0.002 A 
ATOM     12  C   UNL     1       1.316   3.872 -25.303  0.00  0.00    +0.001 A 
ATOM     13  C   UNL     1       0.018   3.949 -25.278  0.00  0.00    +0.010 A 
ATOM     14  C   UNL     1      -0.630   3.652 -24.192  0.00  0.00    +0.007 A 
ATOM     15  C   UNL     1      -4.268   3.472 -22.855  0.00  0.00    +0.132 A 
ENDROOT
BRANCH   6  16
ATOM     16  C   UNL     1      -3.353   2.804 -20.909  0.00  0.00    +0.264 C 
ATOM     17  O   UNL     1      -3.218   3.668 -19.947  0.00  0.00    -0.296 OA
ENDBRANCH   6  16
BRANCH  15  18
ATOM     18  O   UNL     1      -5.453   3.385 -22.327  0.00  0.00    -0.506 OA
ATOM     19  H   UNL     1      -5.721   4.001 -21.673  0.00  0.00    +0.292 HD
ENDBRANCH  15  18
TORSDOF 2
ENDMDL
MODEL 5
REMARK VINA RESULT:    -7.889      1.987      4.264
REMARK INTER + INTRA:          -8.886
REMARK INTER:                  -8.604
REMARK INTRA:                  -0.282
REMARK UNBOUND:                -0.306
REMARK  Name = ZINC000085340986
REMARK  3 active torsions:
REMARK  status: ('A' for Active; 'I' for Inactive)
REMARK    1  A    between atoms: C_1  and  C_2
REMARK    2  A    between atoms: C_13  and  C_14
REMARK    3  A    between atoms: C_16  and  O_17
REMARK                            x       y       z     vdW  Elec       q    Type
REMARK                         _______ _______ _______ _____ _____    ______ ____
ROOT
ATOM      1  C   UNL     1       1.622   4.295 -23.966  0.00  0.00    +0.047 C 
ATOM      2  C   UNL     1       0.354   4.013 -23.995  0.00  0.00    -0.008 A 
ATOM      3  C   UNL     1      -0.316   3.914 -22.885  0.00  0.00    +0.017 A 
ATOM      4  C   UNL     1      -1.585   3.632 -22.915  0.00  0.00    +0.009 A 
ATOM      5  C   UNL     1      -2.184   3.448 -24.053  0.00  0.00    +0.061 A 
ATOM      6  C   UNL     1      -1.514   3.547 -25.163  0.00  0.00    +0.080 A 
ATOM      7  N   UNL     1      -3.433   3.182 -23.812  0.00  0.00    -0.353 N 
ATOM      8  H   UNL     1      -4.127   2.999 -24.487  0.00  0.00    +0.166 HD
ATOM      9  C   UNL     1      -3.606   3.201 -22.524  0.00  0.00    +0.047 A 
ATOM     10  C   UNL     1      -4.657   3.002 -21.785  0.00  0.00    +0.026 A 
ATOM     11  C   UNL     1      -4.564   3.080 -20.490  0.00  0.00    +0.002 A 
ATOM     12  C   UNL     1      -3.422   3.358 -19.935  0.00  0.00    +0.001 A 
ATOM     13  C   UNL     1      -2.372   3.557 -20.675  0.00  0.00    +0.010 A 
ATOM     14  C   UNL     1      -2.464   3.479 -21.969  0.00  0.00    +0.007 A 
ATOM     15  C   UNL     1      -0.245   3.829 -25.134  0.00  0.00    +0.132 A 
ENDROOT
BRANCH   6  16
ATOM     16  C   UNL     1      -2.113   3.363 -26.302  0.00  0.00    +0.264 C 
ATOM     17  O   UNL     1      -3.257   3.936 -26.535  0.00  0.00    -0.296 OA
ENDBRANCH   6  16
BRANCH  15  18
ATOM     18  O   UNL     1       0.424   3.928 -26.244  0.00  0.00    -0.506 OA
ATOM     19  H   UNL     1       0.254   4.638 -26.832  0.00  0.00    +0.292 HD
ENDBRANCH  15  18
TORSDOF 2
ENDMDL
MODEL 6
REMARK VINA RESULT:    -7.791      2.879      5.313
REMARK INTER + INTRA:          -8.780
REMARK INTER:                  -8.471
REMARK INTRA:                  -0.310
REMARK UNBOUND:                -0.306
REMARK  Name = ZINC000085340986
REMARK  3 active torsions:
REMARK  status: ('A' for Active; 'I' for Inactive)
REMARK    1  A    between atoms: C_1  and  C_2
REMARK    2  A    between atoms: C_13  and  C_14
REMARK    3  A    between atoms: C_16  and  O_17
REMARK                            x       y       z     vdW  Elec       q    Type
REMARK                         _______ _______ _______ _____ _____    ______ ____
ROOT
ATOM      1  C   UNL     1       3.010   0.911 -21.048  0.00  0.00    +0.047 C 
ATOM      2  C   UNL     1       2.171   1.456 -21.878  0.00  0.00    -0.008 A 
ATOM      3  C   UNL     1       0.920   1.585 -21.546  0.00  0.00    +0.017 A 
ATOM      4  C   UNL     1       0.081   2.130 -22.376  0.00  0.00    +0.009 A 
ATOM      5  C   UNL     1       0.492   2.548 -23.536  0.00  0.00    +0.061 A 
ATOM      6  C   UNL     1       1.742   2.419 -23.867  0.00  0.00    +0.080 A 
ATOM      7  N   UNL     1      -0.528   3.047 -24.168  0.00  0.00    -0.353 N 
ATOM      8  H   UNL     1      -0.514   3.439 -25.072  0.00  0.00    +0.166 HD
ATOM      9  C   UNL     1      -1.570   2.938 -23.399  0.00  0.00    +0.047 A 
ATOM     10  C   UNL     1      -2.813   3.282 -23.564  0.00  0.00    +0.026 A 
ATOM     11  C   UNL     1      -3.679   3.059 -22.620  0.00  0.00    +0.002 A 
ATOM     12  C   UNL     1      -3.303   2.492 -21.512  0.00  0.00    +0.001 A 
ATOM     13  C   UNL     1      -2.060   2.149 -21.348  0.00  0.00    +0.010 A 
ATOM     14  C   UNL     1      -1.193   2.372 -22.290  0.00  0.00    +0.007 A 
ATOM     15  C   UNL     1       2.582   1.874 -23.038  0.00  0.00    +0.132 A 
ENDROOT
BRANCH   6  16
ATOM     16  C   UNL     1       2.154   2.837 -25.027  0.00  0.00    +0.264 C 
ATOM     17  O   UNL     1       1.734   2.256 -26.113  0.00  0.00    -0.296 OA
ENDBRANCH   6  16
BRANCH  15  18
ATOM     18  O   UNL     1       3.832   1.745 -23.369  0.00  0.00    -0.506 OA
ATOM     19  H   UNL     1       4.096   1.051 -23.942  0.00  0.00    +0.292 HD
ENDBRANCH  15  18
TORSDOF 2
ENDMDL
MODEL 7
REMARK VINA RESULT:    -7.778      4.076      6.683
REMARK INTER + INTRA:          -8.766
REMARK INTER:                  -8.459
REMARK INTRA:                  -0.307
REMARK UNBOUND:                -0.306
REMARK  Name = ZINC000085340986
REMARK  3 active torsions:
REMARK  status: ('A' for Active; 'I' for Inactive)
REMARK    1  A    between atoms: C_1  and  C_2
REMARK    2  A    between atoms: C_13  and  C_14
REMARK    3  A    between atoms: C_16  and  O_17
REMARK                            x       y       z     vdW  Elec       q    Type
REMARK                         _______ _______ _______ _____ _____    ______ ____
ROOT
ATOM      1  C   UNL     1       5.063   4.351 -23.249  0.00  0.00    +0.047 C 
ATOM      2  C   UNL     1       3.981   3.650 -23.087  0.00  0.00    -0.008 A 
ATOM      3  C   UNL     1       2.816   4.211 -23.226  0.00  0.00    +0.017 A 
ATOM      4  C   UNL     1       1.734   3.509 -23.063  0.00  0.00    +0.009 A 
ATOM      5  C   UNL     1       1.815   2.248 -22.762  0.00  0.00    +0.061 A 
ATOM      6  C   UNL     1       2.980   1.687 -22.623  0.00  0.00    +0.080 A 
ATOM      7  N   UNL     1       0.607   1.780 -22.656  0.00  0.00    -0.353 N 
ATOM      8  H   UNL     1       0.363   0.852 -22.436  0.00  0.00    +0.166 HD
ATOM      9  C   UNL     1      -0.222   2.753 -22.892  0.00  0.00    +0.047 A 
ATOM     10  C   UNL     1      -1.521   2.804 -22.910  0.00  0.00    +0.026 A 
ATOM     11  C   UNL     1      -2.123   3.925 -23.180  0.00  0.00    +0.002 A 
ATOM     12  C   UNL     1      -1.427   4.993 -23.432  0.00  0.00    +0.001 A 
ATOM     13  C   UNL     1      -0.128   4.942 -23.414  0.00  0.00    +0.010 A 
ATOM     14  C   UNL     1       0.475   3.822 -23.144  0.00  0.00    +0.007 A 
ATOM     15  C   UNL     1       4.063   2.388 -22.785  0.00  0.00    +0.132 A 
ENDROOT
BRANCH   6  16
ATOM     16  C   UNL     1       3.062   0.425 -22.322  0.00  0.00    +0.264 C 
ATOM     17  O   UNL     1       3.402   0.065 -21.119  0.00  0.00    -0.296 OA
ENDBRANCH   6  16
BRANCH  15  18
ATOM     18  O   UNL     1       5.227   1.827 -22.646  0.00  0.00    -0.506 OA
ATOM     19  H   UNL     1       5.288   0.901 -22.509  0.00  0.00    +0.292 HD
ENDBRANCH  15  18
TORSDOF 2
ENDMDL
MODEL 8
REMARK VINA RESULT:    -7.503      3.625      5.915
REMARK INTER + INTRA:          -8.467
REMARK INTER:                  -8.161
REMARK INTRA:                  -0.306
REMARK UNBOUND:                -0.306
REMARK  Name = ZINC000085340986
REMARK  3 active torsions:
REMARK  status: ('A' for Active; 'I' for Inactive)
REMARK    1  A    between atoms: C_1  and  C_2
REMARK    2  A    between atoms: C_13  and  C_14
REMARK    3  A    between atoms: C_16  and  O_17
REMARK                            x       y       z     vdW  Elec       q    Type
REMARK                         _______ _______ _______ _____ _____    ______ ____
ROOT
ATOM      1  C   UNL     1       3.086   5.892 -22.877  0.00  0.00    +0.047 C 
ATOM      2  C   UNL     1       2.293   4.878 -23.060  0.00  0.00    -0.008 A 
ATOM      3  C   UNL     1       1.058   5.076 -23.419  0.00  0.00    +0.017 A 
ATOM      4  C   UNL     1       0.265   4.063 -23.602  0.00  0.00    +0.009 A 
ATOM      5  C   UNL     1       0.705   2.853 -23.427  0.00  0.00    +0.061 A 
ATOM      6  C   UNL     1       1.938   2.655 -23.068  0.00  0.00    +0.080 A 
ATOM      7  N   UNL     1      -0.272   2.030 -23.670  0.00  0.00    -0.353 N 
ATOM      8  H   UNL     1      -0.229   1.048 -23.617  0.00  0.00    +0.166 HD
ATOM      9  C   UNL     1      -1.316   2.733 -23.996  0.00  0.00    +0.047 A 
ATOM     10  C   UNL     1      -2.527   2.391 -24.325  0.00  0.00    +0.026 A 
ATOM     11  C   UNL     1      -3.405   3.306 -24.613  0.00  0.00    +0.002 A 
ATOM     12  C   UNL     1      -3.073   4.562 -24.571  0.00  0.00    +0.001 A 
ATOM     13  C   UNL     1      -1.862   4.904 -24.242  0.00  0.00    +0.010 A 
ATOM     14  C   UNL     1      -0.984   3.990 -23.954  0.00  0.00    +0.007 A 
ATOM     15  C   UNL     1       2.732   3.668 -22.885  0.00  0.00    +0.132 A 
ENDROOT
BRANCH   6  16
ATOM     16  C   UNL     1       2.379   1.444 -22.893  0.00  0.00    +0.264 C 
ATOM     17  O   UNL     1       3.216   0.928 -23.743  0.00  0.00    -0.296 OA
ENDBRANCH   6  16
BRANCH  15  18
ATOM     18  O   UNL     1       3.966   3.470 -22.526  0.00  0.00    -0.506 OA
ATOM     19  H   UNL     1       4.651   3.997 -22.892  0.00  0.00    +0.292 HD
ENDBRANCH  15  18
TORSDOF 2
ENDMDL
MODEL 9
REMARK VINA RESULT:    -7.444      3.367      5.768
REMARK INTER + INTRA:          -8.403
REMARK INTER:                  -8.105
REMARK INTRA:                  -0.298
REMARK UNBOUND:                -0.306
REMARK  Name = ZINC000085340986
REMARK  3 active torsions:
REMARK  status: ('A' for Active; 'I' for Inactive)
REMARK    1  A    between atoms: C_1  and  C_2
REMARK    2  A    between atoms: C_13  and  C_14
REMARK    3  A    between atoms: C_16  and  O_17
REMARK                            x       y       z     vdW  Elec       q    Type
REMARK                         _______ _______ _______ _____ _____    ______ ____
ROOT
ATOM      1  C   UNL     1       3.080   0.712 -21.725  0.00  0.00    +0.047 C 
ATOM      2  C   UNL     1       2.481   1.759 -22.207  0.00  0.00    -0.008 A 
ATOM      3  C   UNL     1       1.194   1.746 -22.389  0.00  0.00    +0.017 A 
ATOM      4  C   UNL     1       0.595   2.794 -22.871  0.00  0.00    +0.009 A 
ATOM      5  C   UNL     1       1.282   3.855 -23.172  0.00  0.00    +0.061 A 
ATOM      6  C   UNL     1       2.569   3.869 -22.990  0.00  0.00    +0.080 A 
ATOM      7  N   UNL     1       0.459   4.751 -23.630  0.00  0.00    -0.353 N 
ATOM      8  H   UNL     1       0.700   5.655 -23.936  0.00  0.00    +0.166 HD
ATOM      9  C   UNL     1      -0.737   4.243 -23.612  0.00  0.00    +0.047 A 
ATOM     10  C   UNL     1      -1.893   4.726 -23.962  0.00  0.00    +0.026 A 
ATOM     11  C   UNL     1      -2.964   3.999 -23.844  0.00  0.00    +0.002 A 
ATOM     12  C   UNL     1      -2.880   2.789 -23.375  0.00  0.00    +0.001 A 
ATOM     13  C   UNL     1      -1.725   2.307 -23.025  0.00  0.00    +0.010 A 
ATOM     14  C   UNL     1      -0.654   3.033 -23.143  0.00  0.00    +0.007 A 
ATOM     15  C   UNL     1       3.169   2.821 -22.508  0.00  0.00    +0.132 A 
ENDROOT
BRANCH   6  16
ATOM     16  C   UNL     1       3.257   4.930 -23.291  0.00  0.00    +0.264 C 
ATOM     17  O   UNL     1       3.158   5.998 -22.556  0.00  0.00    -0.296 OA
ENDBRANCH   6  16
BRANCH  15  18
ATOM     18  O   UNL     1       4.456   2.835 -22.326  0.00  0.00    -0.506 OA
ATOM     19  H   UNL     1       4.806   2.872 -21.456  0.00  0.00    +0.292 HD
ENDBRANCH  15  18
TORSDOF 2
ENDMDL
