MODEL 1
REMARK VINA RESULT:   -10.674      0.000      0.000
REMARK INTER + INTRA:         -11.298
REMARK INTER:                 -11.298
REMARK INTRA:                   0.000
REMARK UNBOUND:                 0.000
REMARK  Name = ZINC000000009073
REMARK  3 active torsions:
REMARK  status: ('A' for Active; 'I' for Inactive)
REMARK    1  A    between atoms: C_1  and  N_2
REMARK    2  A    between atoms: C_16  and  O_17
REMARK    3  A    between atoms: C_18  and  O_19
REMARK                            x       y       z     vdW  Elec       q    Type
REMARK                         _______ _______ _______ _____ _____    ______ ____
ROOT
ATOM      1  C   UNL     1      -4.158   2.643 -20.381  0.00  0.00    +0.191 C 
ATOM      2  N   UNL     1      -4.244   2.980 -21.634  0.00  0.00    +0.239 N 
ATOM      3  H   UNL     1      -4.707   2.847 -20.735  0.00  0.00    +0.204 HD
ATOM      4  C   UNL     1      -5.387   3.344 -22.132  0.00  0.00    +0.136 C 
ATOM      5  C   UNL     1      -5.474   3.682 -23.385  0.00  0.00    +0.086 C 
ATOM      6  C   UNL     1      -4.415   3.655 -24.139  0.00  0.00    -0.033 A 
ATOM      7  C   UNL     1      -4.501   3.993 -25.391  0.00  0.00    +0.004 A 
ATOM      8  C   UNL     1      -3.443   3.967 -26.146  0.00  0.00    +0.001 A 
ATOM      9  C   UNL     1      -2.298   3.602 -25.648  0.00  0.00    +0.009 A 
ATOM     10  C   UNL     1      -2.213   3.265 -24.396  0.00  0.00    -0.005 A 
ATOM     11  C   UNL     1      -1.068   2.900 -23.897  0.00  0.00    +0.031 A 
ATOM     12  C   UNL     1      -0.010   2.874 -24.652  0.00  0.00    +0.166 A 
ATOM     13  C   UNL     1       1.134   2.510 -24.154  0.00  0.00    +0.159 A 
ATOM     14  C   UNL     1       1.221   2.172 -22.901  0.00  0.00    +0.049 A 
ATOM     15  C   UNL     1       0.162   2.199 -22.147  0.00  0.00    +0.008 A 
ATOM     16  C   UNL     1      -0.982   2.563 -22.645  0.00  0.00    -0.030 A 
ATOM     17  C   UNL     1      -2.041   2.590 -21.891  0.00  0.00    +0.095 C 
ATOM     18  C   UNL     1      -3.271   3.291 -23.641  0.00  0.00    +0.012 A 
ATOM     19  C   UNL     1      -3.184   2.954 -22.389  0.00  0.00    +0.100 C 
ENDROOT
BRANCH  12  20
ATOM     20  O   UNL     1      -0.096   3.212 -25.904  0.00  0.00    -0.503 OA
ATOM     21  H   UNL     1       0.641   3.597 -26.337  0.00  0.00    +0.292 HD
ENDBRANCH  12  20
BRANCH  13  22
ATOM     22  O   UNL     1       2.192   2.483 -24.908  0.00  0.00    -0.503 OA
ATOM     23  H   UNL     1       2.107   2.333 -25.830  0.00  0.00    +0.292 HD
ENDBRANCH  13  22
TORSDOF 2
ENDMDL
MODEL 2
REMARK VINA RESULT:    -9.895      1.729      3.251
REMARK INTER + INTRA:         -10.473
REMARK INTER:                 -10.473
REMARK INTRA:                   0.000
REMARK UNBOUND:                 0.000
REMARK  Name = ZINC000000009073
REMARK  3 active torsions:
REMARK  status: ('A' for Active; 'I' for Inactive)
REMARK    1  A    between atoms: C_1  and  N_2
REMARK    2  A    between atoms: C_16  and  O_17
REMARK    3  A    between atoms: C_18  and  O_19
REMARK                            x       y       z     vdW  Elec       q    Type
REMARK                         _______ _______ _______ _____ _____    ______ ____
ROOT
ATOM      1  C   UNL     1      -3.359   4.110 -26.677  0.00  0.00    +0.191 C 
ATOM      2  N   UNL     1      -3.688   3.873 -25.442  0.00  0.00    +0.239 N 
ATOM      3  H   UNL     1      -3.971   4.168 -26.376  0.00  0.00    +0.204 HD
ATOM      4  C   UNL     1      -4.915   4.045 -25.052  0.00  0.00    +0.136 C 
ATOM      5  C   UNL     1      -5.244   3.809 -23.815  0.00  0.00    +0.086 C 
ATOM      6  C   UNL     1      -4.344   3.401 -22.971  0.00  0.00    -0.033 A 
ATOM      7  C   UNL     1      -4.673   3.165 -21.735  0.00  0.00    +0.004 A 
ATOM      8  C   UNL     1      -3.773   2.758 -20.890  0.00  0.00    +0.001 A 
ATOM      9  C   UNL     1      -2.545   2.586 -21.280  0.00  0.00    +0.009 A 
ATOM     10  C   UNL     1      -2.217   2.822 -22.515  0.00  0.00    -0.005 A 
ATOM     11  C   UNL     1      -0.988   2.650 -22.906  0.00  0.00    +0.031 A 
ATOM     12  C   UNL     1      -0.089   2.243 -22.061  0.00  0.00    +0.166 A 
ATOM     13  C   UNL     1       1.139   2.071 -22.451  0.00  0.00    +0.159 A 
ATOM     14  C   UNL     1       1.468   2.307 -23.686  0.00  0.00    +0.049 A 
ATOM     15  C   UNL     1       0.569   2.715 -24.532  0.00  0.00    +0.008 A 
ATOM     16  C   UNL     1      -0.660   2.886 -24.142  0.00  0.00    -0.030 A 
ATOM     17  C   UNL     1      -1.560   3.294 -24.986  0.00  0.00    +0.095 C 
ATOM     18  C   UNL     1      -3.116   3.230 -23.361  0.00  0.00    +0.012 A 
ATOM     19  C   UNL     1      -2.787   3.465 -24.596  0.00  0.00    +0.100 C 
ENDROOT
BRANCH  12  20
ATOM     20  O   UNL     1      -0.418   2.007 -20.825  0.00  0.00    -0.503 OA
ATOM     21  H   UNL     1       0.174   2.229 -20.133  0.00  0.00    +0.292 HD
ENDBRANCH  12  20
BRANCH  13  22
ATOM     22  O   UNL     1       2.038   1.663 -21.605  0.00  0.00    -0.503 OA
ATOM     23  H   UNL     1       2.378   2.253 -20.961  0.00  0.00    +0.292 HD
ENDBRANCH  13  22
TORSDOF 2
ENDMDL
MODEL 3
REMARK VINA RESULT:    -9.774      2.640      5.571
REMARK INTER + INTRA:         -10.346
REMARK INTER:                 -10.346
REMARK INTRA:                   0.000
REMARK UNBOUND:                 0.000
REMARK  Name = ZINC000000009073
REMARK  3 active torsions:
REMARK  status: ('A' for Active; 'I' for Inactive)
REMARK    1  A    between atoms: C_1  and  N_2
REMARK    2  A    between atoms: C_16  and  O_17
REMARK    3  A    between atoms: C_18  and  O_19
REMARK                            x       y       z     vdW  Elec       q    Type
REMARK                         _______ _______ _______ _____ _____    ______ ____
ROOT
ATOM      1  C   UNL     1       1.174   4.125 -25.873  0.00  0.00    +0.191 C 
ATOM      2  N   UNL     1       0.965   3.470 -24.770  0.00  0.00    +0.239 N 
ATOM      3  H   UNL     1       1.623   3.788 -25.482  0.00  0.00    +0.204 HD
ATOM      4  C   UNL     1       1.955   2.888 -24.163  0.00  0.00    +0.136 C 
ATOM      5  C   UNL     1       1.746   2.231 -23.059  0.00  0.00    +0.086 C 
ATOM      6  C   UNL     1       0.546   2.158 -22.565  0.00  0.00    -0.033 A 
ATOM      7  C   UNL     1       0.337   1.502 -21.462  0.00  0.00    +0.004 A 
ATOM      8  C   UNL     1      -0.862   1.428 -20.967  0.00  0.00    +0.001 A 
ATOM      9  C   UNL     1      -1.854   2.010 -21.574  0.00  0.00    +0.009 A 
ATOM     10  C   UNL     1      -1.644   2.666 -22.677  0.00  0.00    -0.005 A 
ATOM     11  C   UNL     1      -2.635   3.249 -23.286  0.00  0.00    +0.031 A 
ATOM     12  C   UNL     1      -3.835   3.175 -22.790  0.00  0.00    +0.166 A 
ATOM     13  C   UNL     1      -4.825   3.757 -23.398  0.00  0.00    +0.159 A 
ATOM     14  C   UNL     1      -4.617   4.413 -24.501  0.00  0.00    +0.049 A 
ATOM     15  C   UNL     1      -3.417   4.487 -24.996  0.00  0.00    +0.008 A 
ATOM     16  C   UNL     1      -2.426   3.905 -24.388  0.00  0.00    -0.030 A 
ATOM     17  C   UNL     1      -1.226   3.978 -24.883  0.00  0.00    +0.095 C 
ATOM     18  C   UNL     1      -0.444   2.740 -23.172  0.00  0.00    +0.012 A 
ATOM     19  C   UNL     1      -0.236   3.396 -24.275  0.00  0.00    +0.100 C 
ENDROOT
BRANCH  12  20
ATOM     20  O   UNL     1      -4.043   2.519 -21.688  0.00  0.00    -0.503 OA
ATOM     21  H   UNL     1      -4.707   2.806 -21.090  0.00  0.00    +0.292 HD
ENDBRANCH  12  20
BRANCH  13  22
ATOM     22  O   UNL     1      -6.025   3.683 -22.903  0.00  0.00    -0.503 OA
ATOM     23  H   UNL     1      -6.148   3.664 -21.974  0.00  0.00    +0.292 HD
ENDBRANCH  13  22
TORSDOF 2
ENDMDL
MODEL 4
REMARK VINA RESULT:    -9.744      2.291      4.712
REMARK INTER + INTRA:         -10.313
REMARK INTER:                 -10.313
REMARK INTRA:                   0.000
REMARK UNBOUND:                 0.000
REMARK  Name = ZINC000000009073
REMARK  3 active torsions:
REMARK  status: ('A' for Active; 'I' for Inactive)
REMARK    1  A    between atoms: C_1  and  N_2
REMARK    2  A    between atoms: C_16  and  O_17
REMARK    3  A    between atoms: C_18  and  O_19
REMARK                            x       y       z     vdW  Elec       q    Type
REMARK                         _______ _______ _______ _____ _____    ______ ____
ROOT
ATOM      1  C   UNL     1       0.916   1.485 -20.595  0.00  0.00    +0.191 C 
ATOM      2  N   UNL     1       0.738   1.959 -21.792  0.00  0.00    +0.239 N 
ATOM      3  H   UNL     1       1.375   1.577 -21.094  0.00  0.00    +0.204 HD
ATOM      4  C   UNL     1       1.744   2.058 -22.608  0.00  0.00    +0.136 C 
ATOM      5  C   UNL     1       1.567   2.532 -23.807  0.00  0.00    +0.086 C 
ATOM      6  C   UNL     1       0.381   2.907 -24.187  0.00  0.00    -0.033 A 
ATOM      7  C   UNL     1       0.204   3.381 -25.385  0.00  0.00    +0.004 A 
ATOM      8  C   UNL     1      -0.981   3.755 -25.766  0.00  0.00    +0.001 A 
ATOM      9  C   UNL     1      -1.988   3.657 -24.950  0.00  0.00    +0.009 A 
ATOM     10  C   UNL     1      -1.810   3.183 -23.753  0.00  0.00    -0.005 A 
ATOM     11  C   UNL     1      -2.818   3.083 -22.936  0.00  0.00    +0.031 A 
ATOM     12  C   UNL     1      -4.003   3.458 -23.318  0.00  0.00    +0.166 A 
ATOM     13  C   UNL     1      -5.009   3.359 -22.502  0.00  0.00    +0.159 A 
ATOM     14  C   UNL     1      -4.832   2.885 -21.305  0.00  0.00    +0.049 A 
ATOM     15  C   UNL     1      -3.647   2.511 -20.923  0.00  0.00    +0.008 A 
ATOM     16  C   UNL     1      -2.639   2.610 -21.739  0.00  0.00    -0.030 A 
ATOM     17  C   UNL     1      -1.455   2.235 -21.358  0.00  0.00    +0.095 C 
ATOM     18  C   UNL     1      -0.625   2.808 -23.371  0.00  0.00    +0.012 A 
ATOM     19  C   UNL     1      -0.448   2.334 -22.174  0.00  0.00    +0.100 C 
ENDROOT
BRANCH  12  20
ATOM     20  O   UNL     1      -4.180   3.932 -24.515  0.00  0.00    -0.503 OA
ATOM     21  H   UNL     1      -5.035   3.924 -24.900  0.00  0.00    +0.292 HD
ENDBRANCH  12  20
BRANCH  13  22
ATOM     22  O   UNL     1      -6.194   3.734 -22.884  0.00  0.00    -0.503 OA
ATOM     23  H   UNL     1      -6.711   3.173 -23.428  0.00  0.00    +0.292 HD
ENDBRANCH  13  22
TORSDOF 2
ENDMDL
MODEL 5
REMARK VINA RESULT:    -8.684      2.121      3.665
REMARK INTER + INTRA:          -9.191
REMARK INTER:                  -9.191
REMARK INTRA:                   0.000
REMARK UNBOUND:                 0.000
REMARK  Name = ZINC000000009073
REMARK  3 active torsions:
REMARK  status: ('A' for Active; 'I' for Inactive)
REMARK    1  A    between atoms: C_1  and  N_2
REMARK    2  A    between atoms: C_16  and  O_17
REMARK    3  A    between atoms: C_18  and  O_19
REMARK                            x       y       z     vdW  Elec       q    Type
REMARK                         _______ _______ _______ _____ _____    ______ ____
ROOT
ATOM      1  C   UNL     1      -2.062   2.417 -21.004  0.00  0.00    +0.191 C 
ATOM      2  N   UNL     1      -1.540   2.748 -22.148  0.00  0.00    +0.239 N 
ATOM      3  H   UNL     1      -2.353   2.741 -21.531  0.00  0.00    +0.204 HD
ATOM      4  C   UNL     1      -2.260   3.367 -23.034  0.00  0.00    +0.136 C 
ATOM      5  C   UNL     1      -1.739   3.699 -24.179  0.00  0.00    +0.086 C 
ATOM      6  C   UNL     1      -0.498   3.410 -24.435  0.00  0.00    -0.033 A 
ATOM      7  C   UNL     1       0.023   3.742 -25.579  0.00  0.00    +0.004 A 
ATOM      8  C   UNL     1       1.264   3.454 -25.837  0.00  0.00    +0.001 A 
ATOM      9  C   UNL     1       1.985   2.834 -24.950  0.00  0.00    +0.009 A 
ATOM     10  C   UNL     1       1.464   2.502 -23.806  0.00  0.00    -0.005 A 
ATOM     11  C   UNL     1       2.184   1.882 -22.918  0.00  0.00    +0.031 A 
ATOM     12  C   UNL     1       3.425   1.594 -23.175  0.00  0.00    +0.166 A 
ATOM     13  C   UNL     1       4.145   0.974 -22.288  0.00  0.00    +0.159 A 
ATOM     14  C   UNL     1       3.625   0.642 -21.144  0.00  0.00    +0.049 A 
ATOM     15  C   UNL     1       2.383   0.931 -20.887  0.00  0.00    +0.008 A 
ATOM     16  C   UNL     1       1.663   1.551 -21.774  0.00  0.00    -0.030 A 
ATOM     17  C   UNL     1       0.422   1.839 -21.518  0.00  0.00    +0.095 C 
ATOM     18  C   UNL     1       0.222   2.791 -23.549  0.00  0.00    +0.012 A 
ATOM     19  C   UNL     1      -0.298   2.459 -22.404  0.00  0.00    +0.100 C 
ENDROOT
BRANCH  12  20
ATOM     20  O   UNL     1       3.946   1.925 -24.319  0.00  0.00    -0.503 OA
ATOM     21  H   UNL     1       3.874   2.808 -24.628  0.00  0.00    +0.292 HD
ENDBRANCH  12  20
BRANCH  13  22
ATOM     22  O   UNL     1       5.386   0.686 -22.545  0.00  0.00    -0.503 OA
ATOM     23  H   UNL     1       5.853   0.089 -21.994  0.00  0.00    +0.292 HD
ENDBRANCH  13  22
TORSDOF 2
ENDMDL
MODEL 6
REMARK VINA RESULT:    -8.464      3.913      6.934
REMARK INTER + INTRA:          -8.959
REMARK INTER:                  -8.959
REMARK INTRA:                   0.000
REMARK UNBOUND:                 0.000
REMARK  Name = ZINC000000009073
REMARK  3 active torsions:
REMARK  status: ('A' for Active; 'I' for Inactive)
REMARK    1  A    between atoms: C_1  and  N_2
REMARK    2  A    between atoms: C_16  and  O_17
REMARK    3  A    between atoms: C_18  and  O_19
REMARK                            x       y       z     vdW  Elec       q    Type
REMARK                         _______ _______ _______ _____ _____    ______ ____
ROOT
ATOM      1  C   UNL     1       4.004   7.479 -22.128  0.00  0.00    +0.191 C 
ATOM      2  N   UNL     1       4.355   6.279 -22.487  0.00  0.00    +0.239 N 
ATOM      3  H   UNL     1       4.628   7.199 -22.142  0.00  0.00    +0.204 HD
ATOM      4  C   UNL     1       5.605   5.929 -22.446  0.00  0.00    +0.136 C 
ATOM      5  C   UNL     1       5.957   4.729 -22.806  0.00  0.00    +0.086 C 
ATOM      6  C   UNL     1       5.056   3.881 -23.206  0.00  0.00    -0.033 A 
ATOM      7  C   UNL     1       5.408   2.682 -23.566  0.00  0.00    +0.004 A 
ATOM      8  C   UNL     1       4.508   1.834 -23.966  0.00  0.00    +0.001 A 
ATOM      9  C   UNL     1       3.256   2.184 -24.008  0.00  0.00    +0.009 A 
ATOM     10  C   UNL     1       2.906   3.384 -23.648  0.00  0.00    -0.005 A 
ATOM     11  C   UNL     1       1.654   3.735 -23.689  0.00  0.00    +0.031 A 
ATOM     12  C   UNL     1       0.754   2.887 -24.090  0.00  0.00    +0.166 A 
ATOM     13  C   UNL     1      -0.496   3.237 -24.131  0.00  0.00    +0.159 A 
ATOM     14  C   UNL     1      -0.848   4.436 -23.772  0.00  0.00    +0.049 A 
ATOM     15  C   UNL     1       0.052   5.284 -23.371  0.00  0.00    +0.008 A 
ATOM     16  C   UNL     1       1.303   4.934 -23.330  0.00  0.00    -0.030 A 
ATOM     17  C   UNL     1       2.203   5.781 -22.929  0.00  0.00    +0.095 C 
ATOM     18  C   UNL     1       3.805   4.232 -23.247  0.00  0.00    +0.012 A 
ATOM     19  C   UNL     1       3.454   5.431 -22.888  0.00  0.00    +0.100 C 
ENDROOT
BRANCH  12  20
ATOM     20  O   UNL     1       1.106   1.688 -24.449  0.00  0.00    -0.503 OA
ATOM     21  H   UNL     1       0.452   1.063 -24.698  0.00  0.00    +0.292 HD
ENDBRANCH  12  20
BRANCH  13  22
ATOM     22  O   UNL     1      -1.396   2.389 -24.532  0.00  0.00    -0.503 OA
ATOM     23  H   UNL     1      -1.308   1.971 -25.366  0.00  0.00    +0.292 HD
ENDBRANCH  13  22
TORSDOF 2
ENDMDL
MODEL 7
REMARK VINA RESULT:    -8.207      3.940      7.325
REMARK INTER + INTRA:          -8.686
REMARK INTER:                  -8.686
REMARK INTRA:                   0.000
REMARK UNBOUND:                 0.000
REMARK  Name = ZINC000000009073
REMARK  3 active torsions:
REMARK  status: ('A' for Active; 'I' for Inactive)
REMARK    1  A    between atoms: C_1  and  N_2
REMARK    2  A    between atoms: C_16  and  O_17
REMARK    3  A    between atoms: C_18  and  O_19
REMARK                            x       y       z     vdW  Elec       q    Type
REMARK                         _______ _______ _______ _____ _____    ______ ____
ROOT
ATOM      1  C   UNL     1       5.734   5.622 -22.836  0.00  0.00    +0.191 C 
ATOM      2  N   UNL     1       5.445   4.446 -22.364  0.00  0.00    +0.239 N 
ATOM      3  H   UNL     1       6.120   5.205 -22.456  0.00  0.00    +0.204 HD
ATOM      4  C   UNL     1       6.320   3.798 -21.654  0.00  0.00    +0.136 C 
ATOM      5  C   UNL     1       6.031   2.621 -21.181  0.00  0.00    +0.086 C 
ATOM      6  C   UNL     1       4.867   2.094 -21.419  0.00  0.00    -0.033 A 
ATOM      7  C   UNL     1       4.579   0.918 -20.946  0.00  0.00    +0.004 A 
ATOM      8  C   UNL     1       3.415   0.389 -21.184  0.00  0.00    +0.001 A 
ATOM      9  C   UNL     1       2.539   1.037 -21.894  0.00  0.00    +0.009 A 
ATOM     10  C   UNL     1       2.828   2.213 -22.366  0.00  0.00    -0.005 A 
ATOM     11  C   UNL     1       1.953   2.862 -23.077  0.00  0.00    +0.031 A 
ATOM     12  C   UNL     1       0.789   2.333 -23.314  0.00  0.00    +0.166 A 
ATOM     13  C   UNL     1      -0.086   2.981 -24.024  0.00  0.00    +0.159 A 
ATOM     14  C   UNL     1       0.202   4.157 -24.497  0.00  0.00    +0.049 A 
ATOM     15  C   UNL     1       1.366   4.686 -24.259  0.00  0.00    +0.008 A 
ATOM     16  C   UNL     1       2.242   4.038 -23.549  0.00  0.00    -0.030 A 
ATOM     17  C   UNL     1       3.405   4.565 -23.311  0.00  0.00    +0.095 C 
ATOM     18  C   UNL     1       3.992   2.741 -22.129  0.00  0.00    +0.012 A 
ATOM     19  C   UNL     1       4.280   3.918 -22.602  0.00  0.00    +0.100 C 
ENDROOT
BRANCH  12  20
ATOM     20  O   UNL     1       0.501   1.157 -22.841  0.00  0.00    -0.503 OA
ATOM     21  H   UNL     1       0.872   0.875 -22.028  0.00  0.00    +0.292 HD
ENDBRANCH  12  20
BRANCH  13  22
ATOM     22  O   UNL     1      -1.249   2.452 -24.261  0.00  0.00    -0.503 OA
ATOM     23  H   UNL     1      -1.327   1.741 -24.867  0.00  0.00    +0.292 HD
ENDBRANCH  13  22
TORSDOF 2
ENDMDL
MODEL 8
REMARK VINA RESULT:    -7.679      5.099      8.177
REMARK INTER + INTRA:          -8.128
REMARK INTER:                  -8.128
REMARK INTRA:                   0.000
REMARK UNBOUND:                 0.000
REMARK  Name = ZINC000000009073
REMARK  3 active torsions:
REMARK  status: ('A' for Active; 'I' for Inactive)
REMARK    1  A    between atoms: C_1  and  N_2
REMARK    2  A    between atoms: C_16  and  O_17
REMARK    3  A    between atoms: C_18  and  O_19
REMARK                            x       y       z     vdW  Elec       q    Type
REMARK                         _______ _______ _______ _____ _____    ______ ____
ROOT
ATOM      1  C   UNL     1       4.194   8.151 -21.782  0.00  0.00    +0.191 C 
ATOM      2  N   UNL     1       5.019   7.166 -21.976  0.00  0.00    +0.239 N 
ATOM      3  H   UNL     1       4.863   8.119 -21.648  0.00  0.00    +0.204 HD
ATOM      4  C   UNL     1       6.272   7.295 -21.654  0.00  0.00    +0.136 C 
ATOM      5  C   UNL     1       7.099   6.310 -21.847  0.00  0.00    +0.086 C 
ATOM      6  C   UNL     1       6.671   5.196 -22.363  0.00  0.00    -0.033 A 
ATOM      7  C   UNL     1       7.498   4.211 -22.556  0.00  0.00    +0.004 A 
ATOM      8  C   UNL     1       7.072   3.096 -23.071  0.00  0.00    +0.001 A 
ATOM      9  C   UNL     1       5.819   2.966 -23.394  0.00  0.00    +0.009 A 
ATOM     10  C   UNL     1       4.993   3.951 -23.200  0.00  0.00    -0.005 A 
ATOM     11  C   UNL     1       3.739   3.822 -23.522  0.00  0.00    +0.031 A 
ATOM     12  C   UNL     1       3.313   2.707 -24.038  0.00  0.00    +0.166 A 
ATOM     13  C   UNL     1       2.061   2.577 -24.360  0.00  0.00    +0.159 A 
ATOM     14  C   UNL     1       1.234   3.562 -24.167  0.00  0.00    +0.049 A 
ATOM     15  C   UNL     1       1.661   4.676 -23.651  0.00  0.00    +0.008 A 
ATOM     16  C   UNL     1       2.913   4.807 -23.329  0.00  0.00    -0.030 A 
ATOM     17  C   UNL     1       3.340   5.921 -22.814  0.00  0.00    +0.095 C 
ATOM     18  C   UNL     1       5.419   5.066 -22.685  0.00  0.00    +0.012 A 
ATOM     19  C   UNL     1       4.593   6.050 -22.492  0.00  0.00    +0.100 C 
ENDROOT
BRANCH  12  20
ATOM     20  O   UNL     1       4.140   1.722 -24.231  0.00  0.00    -0.503 OA
ATOM     21  H   UNL     1       4.934   1.673 -23.735  0.00  0.00    +0.292 HD
ENDBRANCH  12  20
BRANCH  13  22
ATOM     22  O   UNL     1       1.635   1.462 -24.875  0.00  0.00    -0.503 OA
ATOM     23  H   UNL     1       1.892   1.218 -25.743  0.00  0.00    +0.292 HD
ENDBRANCH  13  22
TORSDOF 2
ENDMDL
