MODEL 1
REMARK VINA RESULT:    -8.780      0.000      0.000
REMARK INTER + INTRA:         -17.146
REMARK INTER:                 -15.516
REMARK INTRA:                  -1.630
REMARK UNBOUND:                -1.694
REMARK  Name = CCCCCCCCCCCC1=C(O)C(=O)C=C(Nc2ccc(C(=O)O)cc2)C1=O                    ZINC000100393415
REMARK  14 active torsions:
REMARK  status: ('A' for Active; 'I' for Inactive)
REMARK    1  A    between atoms: C_1  and  C_2
REMARK    2  A    between atoms: C_2  and  C_3
REMARK    3  A    between atoms: C_3  and  C_4
REMARK    4  A    between atoms: C_4  and  C_5
REMARK    5  A    between atoms: C_5  and  C_6
REMARK    6  A    between atoms: C_6  and  C_7
REMARK    7  A    between atoms: C_7  and  C_8
REMARK    8  A    between atoms: C_8  and  C_9
REMARK    9  A    between atoms: C_9  and  C_10
REMARK   10  A    between atoms: C_10  and  C_11
REMARK   11  A    between atoms: C_11  and  C_12
REMARK   12  A    between atoms: C_18  and  N_19
REMARK   13  A    between atoms: N_19  and  C_20
REMARK   14  A    between atoms: C_23  and  C_24
REMARK                            x       y       z     vdW  Elec       q    Type
REMARK                         _______ _______ _______ _____ _____    ______ ____
ROOT
ATOM      1  C   UNL     1       3.062   2.843 -23.986  0.00  0.00    -0.008 C 
ATOM      2  C   UNL     1       3.206   3.975 -23.363  0.00  0.00    +0.228 C 
ATOM      3  C   UNL     1       2.363   4.942 -23.567  0.00  0.00    +0.227 C 
ATOM      4  C   UNL     1       1.374   4.778 -24.396  0.00  0.00    +0.077 C 
ATOM      5  C   UNL     1       1.229   3.647 -25.019  0.00  0.00    +0.022 C 
ATOM      6  O   UNL     1       2.507   6.073 -22.944  0.00  0.00    -0.284 OA
ATOM      7  O   UNL     1       4.195   4.138 -22.534  0.00  0.00    -0.284 OA
ATOM      8  C   UNL     1       2.073   2.679 -24.815  0.00  0.00    -0.112 C 
ATOM      9  O   UNL     1       1.928   1.548 -25.438  0.00  0.00    -0.828 OA
ENDROOT
BRANCH   5  10
ATOM     10  N   UNL     1       0.241   3.483 -25.847  0.00  0.00    -0.315 N 
ATOM     11  H   UNL     1       0.415   3.185 -26.769  0.00  0.00    +0.152 HD
BRANCH  10  12
ATOM     12  C   UNL     1      -0.978   3.712 -25.458  0.00  0.00    +0.031 A 
ATOM     13  C   UNL     1      -1.979   3.273 -26.163  0.00  0.00    +0.024 A 
ATOM     14  C   UNL     1      -3.198   3.502 -25.775  0.00  0.00    +0.011 A 
ATOM     15  C   UNL     1      -3.418   4.170 -24.681  0.00  0.00    -0.003 A 
ATOM     16  C   UNL     1      -2.417   4.608 -23.976  0.00  0.00    +0.011 A 
ATOM     17  C   UNL     1      -1.198   4.379 -24.365  0.00  0.00    +0.024 A 
BRANCH  15  18
ATOM     18  C   UNL     1      -4.637   4.398 -24.292  0.00  0.00    +0.072 C 
ATOM     19  O   UNL     1      -5.320   5.364 -24.831  0.00  0.00    -0.545 OA
ATOM     20  O   UNL     1      -5.173   3.661 -23.365  0.00  0.00    -0.545 OA
ENDBRANCH  15  18
ENDBRANCH  10  12
ENDBRANCH   5  10
BRANCH   1  21
ATOM     21  C   UNL     1       3.905   1.875 -23.782  0.00  0.00    +0.038 C 
BRANCH  21  22
ATOM     22  C   UNL     1       3.982   1.317 -22.610  0.00  0.00    +0.005 C 
BRANCH  22  23
ATOM     23  C   UNL     1       2.921   0.801 -22.065  0.00  0.00    +0.000 C 
BRANCH  23  24
ATOM     24  C   UNL     1       2.385   1.364 -21.024  0.00  0.00    +0.000 C 
BRANCH  24  25
ATOM     25  C   UNL     1       1.094   1.496 -20.948  0.00  0.00    +0.000 C 
BRANCH  25  26
ATOM     26  C   UNL     1       0.343   1.120 -21.940  0.00  0.00    +0.000 C 
BRANCH  26  27
ATOM     27  C   UNL     1      -0.709   1.815 -22.259  0.00  0.00    -0.000 C 
BRANCH  27  28
ATOM     28  C   UNL     1      -1.458   2.325 -21.327  0.00  0.00    -0.000 C 
BRANCH  28  29
ATOM     29  C   UNL     1      -2.738   2.100 -21.327  0.00  0.00    -0.000 C 
BRANCH  29  31
ATOM     30  C   UNL     1      -3.132   4.086 -20.341  0.00  0.00    +0.004 C 
ATOM     31  C   UNL     1      -3.539   2.901 -20.689  0.00  0.00    -0.003 C 
ENDBRANCH  29  31
ENDBRANCH  28  29
ENDBRANCH  27  28
ENDBRANCH  26  27
ENDBRANCH  25  26
ENDBRANCH  24  25
ENDBRANCH  23  24
ENDBRANCH  22  23
ENDBRANCH  21  22
ENDBRANCH   1  21
TORSDOF 13
ENDMDL
MODEL 2
REMARK VINA RESULT:    -8.513      2.622      6.828
REMARK INTER + INTRA:         -16.676
REMARK INTER:                 -14.395
REMARK INTRA:                  -2.282
REMARK UNBOUND:                -1.694
REMARK  Name = CCCCCCCCCCCC1=C(O)C(=O)C=C(Nc2ccc(C(=O)O)cc2)C1=O                    ZINC000100393415
REMARK  14 active torsions:
REMARK  status: ('A' for Active; 'I' for Inactive)
REMARK    1  A    between atoms: C_1  and  C_2
REMARK    2  A    between atoms: C_2  and  C_3
REMARK    3  A    between atoms: C_3  and  C_4
REMARK    4  A    between atoms: C_4  and  C_5
REMARK    5  A    between atoms: C_5  and  C_6
REMARK    6  A    between atoms: C_6  and  C_7
REMARK    7  A    between atoms: C_7  and  C_8
REMARK    8  A    between atoms: C_8  and  C_9
REMARK    9  A    between atoms: C_9  and  C_10
REMARK   10  A    between atoms: C_10  and  C_11
REMARK   11  A    between atoms: C_11  and  C_12
REMARK   12  A    between atoms: C_18  and  N_19
REMARK   13  A    between atoms: N_19  and  C_20
REMARK   14  A    between atoms: C_23  and  C_24
REMARK                            x       y       z     vdW  Elec       q    Type
REMARK                         _______ _______ _______ _____ _____    ______ ____
ROOT
ATOM      1  C   UNL     1       0.699   2.284 -22.927  0.00  0.00    -0.008 C 
ATOM      2  C   UNL     1       0.721   1.853 -21.701  0.00  0.00    +0.228 C 
ATOM      3  C   UNL     1       1.856   1.591 -21.124  0.00  0.00    +0.227 C 
ATOM      4  C   UNL     1       2.969   1.759 -21.773  0.00  0.00    +0.077 C 
ATOM      5  C   UNL     1       2.948   2.190 -22.999  0.00  0.00    +0.022 C 
ATOM      6  O   UNL     1       1.877   1.160 -19.897  0.00  0.00    -0.284 OA
ATOM      7  O   UNL     1      -0.393   1.685 -21.051  0.00  0.00    -0.284 OA
ATOM      8  C   UNL     1       1.813   2.453 -23.576  0.00  0.00    -0.112 C 
ATOM      9  O   UNL     1       1.792   2.884 -24.803  0.00  0.00    -0.828 OA
ENDROOT
BRANCH   5  10
ATOM     10  N   UNL     1       4.061   2.358 -23.649  0.00  0.00    -0.315 N 
ATOM     11  H   UNL     1       4.234   1.846 -24.471  0.00  0.00    +0.152 HD
BRANCH  10  12
ATOM     12  C   UNL     1       4.947   3.204 -23.213  0.00  0.00    +0.031 A 
ATOM     13  C   UNL     1       6.131   2.788 -22.872  0.00  0.00    +0.024 A 
ATOM     14  C   UNL     1       7.016   3.633 -22.436  0.00  0.00    +0.011 A 
ATOM     15  C   UNL     1       6.720   4.895 -22.340  0.00  0.00    -0.003 A 
ATOM     16  C   UNL     1       5.536   5.312 -22.680  0.00  0.00    +0.011 A 
ATOM     17  C   UNL     1       4.650   4.466 -23.116  0.00  0.00    +0.024 A 
BRANCH  15  18
ATOM     18  C   UNL     1       7.605   5.740 -21.904  0.00  0.00    +0.072 C 
ATOM     19  O   UNL     1       8.689   5.308 -21.332  0.00  0.00    -0.545 OA
ATOM     20  O   UNL     1       7.407   7.018 -22.040  0.00  0.00    -0.545 OA
ENDBRANCH  15  18
ENDBRANCH  10  12
ENDBRANCH   5  10
BRANCH   1  21
ATOM     21  C   UNL     1      -0.436   2.547 -23.504  0.00  0.00    +0.038 C 
BRANCH  21  22
ATOM     22  C   UNL     1      -0.897   3.762 -23.506  0.00  0.00    +0.005 C 
BRANCH  22  23
ATOM     23  C   UNL     1      -1.837   4.099 -24.340  0.00  0.00    +0.000 C 
BRANCH  23  24
ATOM     24  C   UNL     1      -2.534   3.182 -24.939  0.00  0.00    +0.000 C 
BRANCH  24  25
ATOM     25  C   UNL     1      -3.787   3.393 -25.213  0.00  0.00    +0.000 C 
BRANCH  25  26
ATOM     26  C   UNL     1      -4.493   4.184 -24.460  0.00  0.00    +0.000 C 
BRANCH  26  27
ATOM     27  C   UNL     1      -5.390   3.690 -23.659  0.00  0.00    -0.000 C 
BRANCH  27  28
ATOM     28  C   UNL     1      -5.206   3.728 -22.373  0.00  0.00    -0.000 C 
BRANCH  28  29
ATOM     29  C   UNL     1      -4.734   2.687 -21.753  0.00  0.00    -0.000 C 
BRANCH  29  31
ATOM     30  C   UNL     1      -3.262   3.796 -20.460  0.00  0.00    +0.004 C 
ATOM     31  C   UNL     1      -3.576   2.751 -21.165  0.00  0.00    -0.003 C 
ENDBRANCH  29  31
ENDBRANCH  28  29
ENDBRANCH  27  28
ENDBRANCH  26  27
ENDBRANCH  25  26
ENDBRANCH  24  25
ENDBRANCH  23  24
ENDBRANCH  22  23
ENDBRANCH  21  22
ENDBRANCH   1  21
TORSDOF 13
ENDMDL
MODEL 3
REMARK VINA RESULT:    -8.251      2.733      6.909
REMARK INTER + INTRA:         -16.216
REMARK INTER:                 -14.121
REMARK INTRA:                  -2.095
REMARK UNBOUND:                -1.694
REMARK  Name = CCCCCCCCCCCC1=C(O)C(=O)C=C(Nc2ccc(C(=O)O)cc2)C1=O                    ZINC000100393415
REMARK  14 active torsions:
REMARK  status: ('A' for Active; 'I' for Inactive)
REMARK    1  A    between atoms: C_1  and  C_2
REMARK    2  A    between atoms: C_2  and  C_3
REMARK    3  A    between atoms: C_3  and  C_4
REMARK    4  A    between atoms: C_4  and  C_5
REMARK    5  A    between atoms: C_5  and  C_6
REMARK    6  A    between atoms: C_6  and  C_7
REMARK    7  A    between atoms: C_7  and  C_8
REMARK    8  A    between atoms: C_8  and  C_9
REMARK    9  A    between atoms: C_9  and  C_10
REMARK   10  A    between atoms: C_10  and  C_11
REMARK   11  A    between atoms: C_11  and  C_12
REMARK   12  A    between atoms: C_18  and  N_19
REMARK   13  A    between atoms: N_19  and  C_20
REMARK   14  A    between atoms: C_23  and  C_24
REMARK                            x       y       z     vdW  Elec       q    Type
REMARK                         _______ _______ _______ _____ _____    ______ ____
ROOT
ATOM      1  C   UNL     1       1.036   2.287 -22.569  0.00  0.00    -0.008 C 
ATOM      2  C   UNL     1       1.355   1.558 -21.541  0.00  0.00    +0.228 C 
ATOM      3  C   UNL     1       2.601   1.276 -21.304  0.00  0.00    +0.227 C 
ATOM      4  C   UNL     1       3.530   1.724 -22.095  0.00  0.00    +0.077 C 
ATOM      5  C   UNL     1       3.213   2.454 -23.123  0.00  0.00    +0.022 C 
ATOM      6  O   UNL     1       2.918   0.547 -20.276  0.00  0.00    -0.284 OA
ATOM      7  O   UNL     1       0.424   1.110 -20.750  0.00  0.00    -0.284 OA
ATOM      8  C   UNL     1       1.966   2.735 -23.361  0.00  0.00    -0.112 C 
ATOM      9  O   UNL     1       1.649   3.465 -24.389  0.00  0.00    -0.828 OA
ENDROOT
BRANCH   5  10
ATOM     10  N   UNL     1       4.142   2.902 -23.914  0.00  0.00    -0.315 N 
ATOM     11  H   UNL     1       4.145   2.646 -24.865  0.00  0.00    +0.152 HD
BRANCH  10  12
ATOM     12  C   UNL     1       5.068   3.688 -23.450  0.00  0.00    +0.031 A 
ATOM     13  C   UNL     1       6.313   3.316 -23.485  0.00  0.00    +0.024 A 
ATOM     14  C   UNL     1       7.239   4.101 -23.021  0.00  0.00    +0.011 A 
ATOM     15  C   UNL     1       6.921   5.259 -22.522  0.00  0.00    -0.003 A 
ATOM     16  C   UNL     1       5.676   5.631 -22.487  0.00  0.00    +0.011 A 
ATOM     17  C   UNL     1       4.750   4.844 -22.951  0.00  0.00    +0.024 A 
BRANCH  15  18
ATOM     18  C   UNL     1       7.847   6.044 -22.058  0.00  0.00    +0.072 C 
ATOM     19  O   UNL     1       8.167   7.124 -22.706  0.00  0.00    -0.545 OA
ATOM     20  O   UNL     1       8.452   5.750 -20.946  0.00  0.00    -0.545 OA
ENDBRANCH  15  18
ENDBRANCH  10  12
ENDBRANCH   5  10
BRANCH   1  21
ATOM     21  C   UNL     1      -0.210   2.569 -22.807  0.00  0.00    +0.038 C 
BRANCH  21  22
ATOM     22  C   UNL     1      -0.694   3.723 -22.454  0.00  0.00    +0.005 C 
BRANCH  22  23
ATOM     23  C   UNL     1      -1.884   3.798 -21.934  0.00  0.00    +0.000 C 
BRANCH  23  24
ATOM     24  C   UNL     1      -2.498   2.717 -21.557  0.00  0.00    +0.000 C 
BRANCH  24  25
ATOM     25  C   UNL     1      -3.713   2.785 -21.101  0.00  0.00    +0.000 C 
BRANCH  25  26
ATOM     26  C   UNL     1      -4.563   3.610 -21.636  0.00  0.00    +0.000 C 
BRANCH  26  27
ATOM     27  C   UNL     1      -5.244   3.253 -22.685  0.00  0.00    -0.000 C 
BRANCH  27  28
ATOM     28  C   UNL     1      -5.289   4.030 -23.726  0.00  0.00    -0.000 C 
BRANCH  28  29
ATOM     29  C   UNL     1      -4.744   3.651 -24.844  0.00  0.00    -0.000 C 
BRANCH  29  31
ATOM     30  C   UNL     1      -2.635   3.324 -25.561  0.00  0.00    +0.004 C 
ATOM     31  C   UNL     1      -3.588   4.130 -25.199  0.00  0.00    -0.003 C 
ENDBRANCH  29  31
ENDBRANCH  28  29
ENDBRANCH  27  28
ENDBRANCH  26  27
ENDBRANCH  25  26
ENDBRANCH  24  25
ENDBRANCH  23  24
ENDBRANCH  22  23
ENDBRANCH  21  22
ENDBRANCH   1  21
TORSDOF 13
ENDMDL
MODEL 4
REMARK VINA RESULT:    -8.132      2.465      6.839
REMARK INTER + INTRA:         -16.007
REMARK INTER:                 -14.924
REMARK INTRA:                  -1.082
REMARK UNBOUND:                -1.694
REMARK  Name = CCCCCCCCCCCC1=C(O)C(=O)C=C(Nc2ccc(C(=O)O)cc2)C1=O                    ZINC000100393415
REMARK  14 active torsions:
REMARK  status: ('A' for Active; 'I' for Inactive)
REMARK    1  A    between atoms: C_1  and  C_2
REMARK    2  A    between atoms: C_2  and  C_3
REMARK    3  A    between atoms: C_3  and  C_4
REMARK    4  A    between atoms: C_4  and  C_5
REMARK    5  A    between atoms: C_5  and  C_6
REMARK    6  A    between atoms: C_6  and  C_7
REMARK    7  A    between atoms: C_7  and  C_8
REMARK    8  A    between atoms: C_8  and  C_9
REMARK    9  A    between atoms: C_9  and  C_10
REMARK   10  A    between atoms: C_10  and  C_11
REMARK   11  A    between atoms: C_11  and  C_12
REMARK   12  A    between atoms: C_18  and  N_19
REMARK   13  A    between atoms: N_19  and  C_20
REMARK   14  A    between atoms: C_23  and  C_24
REMARK                            x       y       z     vdW  Elec       q    Type
REMARK                         _______ _______ _______ _____ _____    ______ ____
ROOT
ATOM      1  C   UNL     1       0.088   2.642 -23.068  0.00  0.00    -0.008 C 
ATOM      2  C   UNL     1       0.139   3.881 -23.457  0.00  0.00    +0.228 C 
ATOM      3  C   UNL     1       1.289   4.460 -23.635  0.00  0.00    +0.227 C 
ATOM      4  C   UNL     1       2.388   3.799 -23.426  0.00  0.00    +0.077 C 
ATOM      5  C   UNL     1       2.338   2.560 -23.037  0.00  0.00    +0.022 C 
ATOM      6  O   UNL     1       1.339   5.700 -24.024  0.00  0.00    -0.284 OA
ATOM      7  O   UNL     1      -0.961   4.542 -23.666  0.00  0.00    -0.284 OA
ATOM      8  C   UNL     1       1.188   1.981 -22.859  0.00  0.00    -0.112 C 
ATOM      9  O   UNL     1       1.137   0.741 -22.470  0.00  0.00    -0.828 OA
ENDROOT
BRANCH   5  10
ATOM     10  N   UNL     1       3.437   1.899 -22.828  0.00  0.00    -0.315 N 
ATOM     11  H   UNL     1       3.462   0.925 -22.970  0.00  0.00    +0.152 HD
BRANCH  10  12
ATOM     12  C   UNL     1       4.506   2.524 -22.430  0.00  0.00    +0.031 A 
ATOM     13  C   UNL     1       4.922   2.385 -21.206  0.00  0.00    +0.024 A 
ATOM     14  C   UNL     1       5.990   3.009 -20.808  0.00  0.00    +0.011 A 
ATOM     15  C   UNL     1       6.643   3.773 -21.633  0.00  0.00    -0.003 A 
ATOM     16  C   UNL     1       6.227   3.912 -22.856  0.00  0.00    +0.011 A 
ATOM     17  C   UNL     1       5.158   3.287 -23.254  0.00  0.00    +0.024 A 
BRANCH  15  18
ATOM     18  C   UNL     1       7.711   4.398 -21.234  0.00  0.00    +0.072 C 
ATOM     19  O   UNL     1       7.954   4.524 -19.964  0.00  0.00    -0.545 OA
ATOM     20  O   UNL     1       8.536   4.896 -22.107  0.00  0.00    -0.545 OA
ENDBRANCH  15  18
ENDBRANCH  10  12
ENDBRANCH   5  10
BRANCH   1  21
ATOM     21  C   UNL     1      -1.062   2.063 -22.890  0.00  0.00    +0.038 C 
BRANCH  21  22
ATOM     22  C   UNL     1      -1.523   1.891 -21.686  0.00  0.00    +0.005 C 
BRANCH  22  23
ATOM     23  C   UNL     1      -1.841   2.920 -20.958  0.00  0.00    +0.000 C 
BRANCH  23  24
ATOM     24  C   UNL     1      -3.087   3.259 -20.820  0.00  0.00    +0.000 C 
BRANCH  24  25
ATOM     25  C   UNL     1      -4.025   2.378 -21.000  0.00  0.00    +0.000 C 
BRANCH  25  26
ATOM     26  C   UNL     1      -5.126   2.714 -21.603  0.00  0.00    +0.000 C 
BRANCH  26  27
ATOM     27  C   UNL     1      -5.156   3.770 -22.362  0.00  0.00    -0.000 C 
BRANCH  27  28
ATOM     28  C   UNL     1      -5.476   3.660 -23.617  0.00  0.00    -0.000 C 
BRANCH  28  29
ATOM     29  C   UNL     1      -4.795   4.299 -24.520  0.00  0.00    -0.000 C 
BRANCH  29  31
ATOM     30  C   UNL     1      -3.359   2.942 -25.600  0.00  0.00    +0.004 C 
ATOM     31  C   UNL     1      -4.422   3.689 -25.606  0.00  0.00    -0.003 C 
ENDBRANCH  29  31
ENDBRANCH  28  29
ENDBRANCH  27  28
ENDBRANCH  26  27
ENDBRANCH  25  26
ENDBRANCH  24  25
ENDBRANCH  23  24
ENDBRANCH  22  23
ENDBRANCH  21  22
ENDBRANCH   1  21
TORSDOF 13
ENDMDL
MODEL 5
REMARK VINA RESULT:    -7.956      1.466      3.252
REMARK INTER + INTRA:         -15.697
REMARK INTER:                 -13.789
REMARK INTRA:                  -1.908
REMARK UNBOUND:                -1.694
REMARK  Name = CCCCCCCCCCCC1=C(O)C(=O)C=C(Nc2ccc(C(=O)O)cc2)C1=O                    ZINC000100393415
REMARK  14 active torsions:
REMARK  status: ('A' for Active; 'I' for Inactive)
REMARK    1  A    between atoms: C_1  and  C_2
REMARK    2  A    between atoms: C_2  and  C_3
REMARK    3  A    between atoms: C_3  and  C_4
REMARK    4  A    between atoms: C_4  and  C_5
REMARK    5  A    between atoms: C_5  and  C_6
REMARK    6  A    between atoms: C_6  and  C_7
REMARK    7  A    between atoms: C_7  and  C_8
REMARK    8  A    between atoms: C_8  and  C_9
REMARK    9  A    between atoms: C_9  and  C_10
REMARK   10  A    between atoms: C_10  and  C_11
REMARK   11  A    between atoms: C_11  and  C_12
REMARK   12  A    between atoms: C_18  and  N_19
REMARK   13  A    between atoms: N_19  and  C_20
REMARK   14  A    between atoms: C_23  and  C_24
REMARK                            x       y       z     vdW  Elec       q    Type
REMARK                         _______ _______ _______ _____ _____    ______ ____
ROOT
ATOM      1  C   UNL     1       2.988   3.930 -23.635  0.00  0.00    -0.008 C 
ATOM      2  C   UNL     1       2.951   3.006 -24.549  0.00  0.00    +0.228 C 
ATOM      3  C   UNL     1       1.873   2.832 -25.254  0.00  0.00    +0.227 C 
ATOM      4  C   UNL     1       0.832   3.581 -25.046  0.00  0.00    +0.077 C 
ATOM      5  C   UNL     1       0.868   4.505 -24.132  0.00  0.00    +0.022 C 
ATOM      6  O   UNL     1       1.837   1.907 -26.168  0.00  0.00    -0.284 OA
ATOM      7  O   UNL     1       3.993   2.256 -24.757  0.00  0.00    -0.284 OA
ATOM      8  C   UNL     1       1.946   4.680 -23.427  0.00  0.00    -0.112 C 
ATOM      9  O   UNL     1       1.983   5.604 -22.513  0.00  0.00    -0.828 OA
ENDROOT
BRANCH   5  10
ATOM     10  N   UNL     1      -0.173   5.255 -23.924  0.00  0.00    -0.315 N 
ATOM     11  H   UNL     1      -0.141   6.214 -24.140  0.00  0.00    +0.152 HD
BRANCH  10  12
ATOM     12  C   UNL     1      -1.258   4.737 -23.429  0.00  0.00    +0.031 A 
ATOM     13  C   UNL     1      -1.437   4.710 -22.141  0.00  0.00    +0.024 A 
ATOM     14  C   UNL     1      -2.521   4.193 -21.646  0.00  0.00    +0.011 A 
ATOM     15  C   UNL     1      -3.428   3.703 -22.437  0.00  0.00    -0.003 A 
ATOM     16  C   UNL     1      -3.250   3.729 -23.725  0.00  0.00    +0.011 A 
ATOM     17  C   UNL     1      -2.165   4.247 -24.220  0.00  0.00    +0.024 A 
BRANCH  15  18
ATOM     18  C   UNL     1      -4.513   3.185 -21.942  0.00  0.00    +0.072 C 
ATOM     19  O   UNL     1      -4.441   2.362 -20.939  0.00  0.00    -0.545 OA
ATOM     20  O   UNL     1      -5.670   3.492 -22.450  0.00  0.00    -0.545 OA
ENDBRANCH  15  18
ENDBRANCH  10  12
ENDBRANCH   5  10
BRANCH   1  21
ATOM     21  C   UNL     1       4.066   4.104 -22.930  0.00  0.00    +0.038 C 
BRANCH  21  22
ATOM     22  C   UNL     1       5.098   3.337 -23.120  0.00  0.00    +0.005 C 
BRANCH  22  23
ATOM     23  C   UNL     1       5.848   2.995 -22.114  0.00  0.00    +0.000 C 
BRANCH  23  24
ATOM     24  C   UNL     1       5.327   2.383 -21.093  0.00  0.00    +0.000 C 
BRANCH  24  25
ATOM     25  C   UNL     1       5.056   1.114 -21.164  0.00  0.00    +0.000 C 
BRANCH  25  26
ATOM     26  C   UNL     1       3.838   0.698 -20.985  0.00  0.00    +0.000 C 
BRANCH  26  27
ATOM     27  C   UNL     1       3.125   0.317 -22.004  0.00  0.00    -0.000 C 
BRANCH  27  28
ATOM     28  C   UNL     1       1.915   0.768 -22.157  0.00  0.00    -0.000 C 
BRANCH  28  29
ATOM     29  C   UNL     1       1.429   1.624 -21.308  0.00  0.00    -0.000 C 
BRANCH  29  31
ATOM     30  C   UNL     1      -0.686   1.197 -21.950  0.00  0.00    +0.004 C 
ATOM     31  C   UNL     1       0.152   1.644 -21.064  0.00  0.00    -0.003 C 
ENDBRANCH  29  31
ENDBRANCH  28  29
ENDBRANCH  27  28
ENDBRANCH  26  27
ENDBRANCH  25  26
ENDBRANCH  24  25
ENDBRANCH  23  24
ENDBRANCH  22  23
ENDBRANCH  21  22
ENDBRANCH   1  21
TORSDOF 13
ENDMDL
MODEL 6
REMARK VINA RESULT:    -7.641      3.009      5.198
REMARK INTER + INTRA:         -15.143
REMARK INTER:                 -12.986
REMARK INTRA:                  -2.157
REMARK UNBOUND:                -1.694
REMARK  Name = CCCCCCCCCCCC1=C(O)C(=O)C=C(Nc2ccc(C(=O)O)cc2)C1=O                    ZINC000100393415
REMARK  14 active torsions:
REMARK  status: ('A' for Active; 'I' for Inactive)
REMARK    1  A    between atoms: C_1  and  C_2
REMARK    2  A    between atoms: C_2  and  C_3
REMARK    3  A    between atoms: C_3  and  C_4
REMARK    4  A    between atoms: C_4  and  C_5
REMARK    5  A    between atoms: C_5  and  C_6
REMARK    6  A    between atoms: C_6  and  C_7
REMARK    7  A    between atoms: C_7  and  C_8
REMARK    8  A    between atoms: C_8  and  C_9
REMARK    9  A    between atoms: C_9  and  C_10
REMARK   10  A    between atoms: C_10  and  C_11
REMARK   11  A    between atoms: C_11  and  C_12
REMARK   12  A    between atoms: C_18  and  N_19
REMARK   13  A    between atoms: N_19  and  C_20
REMARK   14  A    between atoms: C_23  and  C_24
REMARK                            x       y       z     vdW  Elec       q    Type
REMARK                         _______ _______ _______ _____ _____    ______ ____
ROOT
ATOM      1  C   UNL     1       3.527   3.626 -23.298  0.00  0.00    -0.008 C 
ATOM      2  C   UNL     1       3.599   2.363 -23.596  0.00  0.00    +0.228 C 
ATOM      3  C   UNL     1       2.637   1.794 -24.260  0.00  0.00    +0.227 C 
ATOM      4  C   UNL     1       1.601   2.489 -24.626  0.00  0.00    +0.077 C 
ATOM      5  C   UNL     1       1.528   3.753 -24.328  0.00  0.00    +0.022 C 
ATOM      6  O   UNL     1       2.710   0.531 -24.558  0.00  0.00    -0.284 OA
ATOM      7  O   UNL     1       4.636   1.667 -23.230  0.00  0.00    -0.284 OA
ATOM      8  C   UNL     1       2.490   4.321 -23.664  0.00  0.00    -0.112 C 
ATOM      9  O   UNL     1       2.417   5.584 -23.366  0.00  0.00    -0.828 OA
ENDROOT
BRANCH   5  10
ATOM     10  N   UNL     1       0.492   4.448 -24.694  0.00  0.00    -0.315 N 
ATOM     11  H   UNL     1       0.595   5.184 -25.339  0.00  0.00    +0.152 HD
BRANCH  10  12
ATOM     12  C   UNL     1      -0.682   4.171 -24.207  0.00  0.00    +0.031 A 
ATOM     13  C   UNL     1      -0.929   4.379 -22.948  0.00  0.00    +0.024 A 
ATOM     14  C   UNL     1      -2.102   4.103 -22.461  0.00  0.00    +0.011 A 
ATOM     15  C   UNL     1      -3.029   3.618 -23.233  0.00  0.00    -0.003 A 
ATOM     16  C   UNL     1      -2.782   3.409 -24.492  0.00  0.00    +0.011 A 
ATOM     17  C   UNL     1      -1.608   3.686 -24.979  0.00  0.00    +0.024 A 
BRANCH  15  18
ATOM     18  C   UNL     1      -4.202   3.341 -22.747  0.00  0.00    +0.072 C 
ATOM     19  O   UNL     1      -5.273   3.733 -23.370  0.00  0.00    -0.545 OA
ATOM     20  O   UNL     1      -4.304   2.673 -21.636  0.00  0.00    -0.545 OA
ENDBRANCH  15  18
ENDBRANCH  10  12
ENDBRANCH   5  10
BRANCH   1  21
ATOM     21  C   UNL     1       4.489   4.194 -22.634  0.00  0.00    +0.038 C 
BRANCH  21  22
ATOM     22  C   UNL     1       5.563   4.584 -23.254  0.00  0.00    +0.005 C 
BRANCH  22  23
ATOM     23  C   UNL     1       6.733   4.348 -22.738  0.00  0.00    +0.000 C 
BRANCH  23  24
ATOM     24  C   UNL     1       6.838   4.030 -21.482  0.00  0.00    +0.000 C 
BRANCH  24  25
ATOM     25  C   UNL     1       7.667   4.675 -20.716  0.00  0.00    +0.000 C 
BRANCH  25  26
ATOM     26  C   UNL     1       7.261   5.716 -20.052  0.00  0.00    +0.000 C 
BRANCH  26  27
ATOM     27  C   UNL     1       7.653   6.905 -20.405  0.00  0.00    -0.000 C 
BRANCH  27  28
ATOM     28  C   UNL     1       6.781   7.856 -20.564  0.00  0.00    -0.000 C 
BRANCH  28  29
ATOM     29  C   UNL     1       5.998   7.852 -21.601  0.00  0.00    -0.000 C 
BRANCH  29  31
ATOM     30  C   UNL     1       4.217   8.566 -20.422  0.00  0.00    +0.004 C 
ATOM     31  C   UNL     1       4.709   7.932 -21.444  0.00  0.00    -0.003 C 
ENDBRANCH  29  31
ENDBRANCH  28  29
ENDBRANCH  27  28
ENDBRANCH  26  27
ENDBRANCH  25  26
ENDBRANCH  24  25
ENDBRANCH  23  24
ENDBRANCH  22  23
ENDBRANCH  21  22
ENDBRANCH   1  21
TORSDOF 13
ENDMDL
MODEL 7
REMARK VINA RESULT:    -7.541      3.218      5.591
REMARK INTER + INTRA:         -14.966
REMARK INTER:                 -13.004
REMARK INTRA:                  -1.961
REMARK UNBOUND:                -1.694
REMARK  Name = CCCCCCCCCCCC1=C(O)C(=O)C=C(Nc2ccc(C(=O)O)cc2)C1=O                    ZINC000100393415
REMARK  14 active torsions:
REMARK  status: ('A' for Active; 'I' for Inactive)
REMARK    1  A    between atoms: C_1  and  C_2
REMARK    2  A    between atoms: C_2  and  C_3
REMARK    3  A    between atoms: C_3  and  C_4
REMARK    4  A    between atoms: C_4  and  C_5
REMARK    5  A    between atoms: C_5  and  C_6
REMARK    6  A    between atoms: C_6  and  C_7
REMARK    7  A    between atoms: C_7  and  C_8
REMARK    8  A    between atoms: C_8  and  C_9
REMARK    9  A    between atoms: C_9  and  C_10
REMARK   10  A    between atoms: C_10  and  C_11
REMARK   11  A    between atoms: C_11  and  C_12
REMARK   12  A    between atoms: C_18  and  N_19
REMARK   13  A    between atoms: N_19  and  C_20
REMARK   14  A    between atoms: C_23  and  C_24
REMARK                            x       y       z     vdW  Elec       q    Type
REMARK                         _______ _______ _______ _____ _____    ______ ____
ROOT
ATOM      1  C   UNL     1       3.966   2.998 -22.566  0.00  0.00    -0.008 C 
ATOM      2  C   UNL     1       4.214   1.947 -21.841  0.00  0.00    +0.228 C 
ATOM      3  C   UNL     1       3.305   1.030 -21.692  0.00  0.00    +0.227 C 
ATOM      4  C   UNL     1       2.148   1.163 -22.268  0.00  0.00    +0.077 C 
ATOM      5  C   UNL     1       1.899   2.213 -22.993  0.00  0.00    +0.022 C 
ATOM      6  O   UNL     1       3.554  -0.019 -20.967  0.00  0.00    -0.284 OA
ATOM      7  O   UNL     1       5.373   1.815 -21.265  0.00  0.00    -0.284 OA
ATOM      8  C   UNL     1       2.808   3.130 -23.143  0.00  0.00    -0.112 C 
ATOM      9  O   UNL     1       2.559   4.180 -23.868  0.00  0.00    -0.828 OA
ENDROOT
BRANCH   5  10
ATOM     10  N   UNL     1       0.741   2.346 -23.569  0.00  0.00    -0.315 N 
ATOM     11  H   UNL     1       0.653   2.198 -24.538  0.00  0.00    +0.152 HD
BRANCH  10  12
ATOM     12  C   UNL     1      -0.301   2.676 -22.865  0.00  0.00    +0.031 A 
ATOM     13  C   UNL     1      -0.905   1.781 -22.141  0.00  0.00    +0.024 A 
ATOM     14  C   UNL     1      -1.947   2.109 -21.437  0.00  0.00    +0.011 A 
ATOM     15  C   UNL     1      -2.387   3.333 -21.457  0.00  0.00    -0.003 A 
ATOM     16  C   UNL     1      -1.783   4.228 -22.182  0.00  0.00    +0.011 A 
ATOM     17  C   UNL     1      -0.740   3.898 -22.886  0.00  0.00    +0.024 A 
BRANCH  15  18
ATOM     18  C   UNL     1      -3.429   3.662 -20.754  0.00  0.00    +0.072 C 
ATOM     19  O   UNL     1      -3.354   3.690 -19.456  0.00  0.00    -0.545 OA
ATOM     20  O   UNL     1      -4.546   3.962 -21.347  0.00  0.00    -0.545 OA
ENDBRANCH  15  18
ENDBRANCH  10  12
ENDBRANCH   5  10
BRANCH   1  21
ATOM     21  C   UNL     1       4.875   3.914 -22.716  0.00  0.00    +0.038 C 
BRANCH  21  22
ATOM     22  C   UNL     1       5.813   3.762 -23.603  0.00  0.00    +0.005 C 
BRANCH  22  23
ATOM     23  C   UNL     1       6.917   4.441 -23.506  0.00  0.00    +0.000 C 
BRANCH  23  24
ATOM     24  C   UNL     1       7.849   4.054 -22.687  0.00  0.00    +0.000 C 
BRANCH  24  25
ATOM     25  C   UNL     1       8.197   4.814 -21.692  0.00  0.00    +0.000 C 
BRANCH  25  26
ATOM     26  C   UNL     1       7.554   4.742 -20.565  0.00  0.00    +0.000 C 
BRANCH  26  27
ATOM     27  C   UNL     1       7.161   5.830 -19.970  0.00  0.00    -0.000 C 
BRANCH  27  28
ATOM     28  C   UNL     1       7.228   6.971 -20.590  0.00  0.00    -0.000 C 
BRANCH  28  29
ATOM     29  C   UNL     1       6.184   7.741 -20.649  0.00  0.00    -0.000 C 
BRANCH  29  31
ATOM     30  C   UNL     1       4.447   7.293 -22.011  0.00  0.00    +0.004 C 
ATOM     31  C   UNL     1       5.565   7.914 -21.780  0.00  0.00    -0.003 C 
ENDBRANCH  29  31
ENDBRANCH  28  29
ENDBRANCH  27  28
ENDBRANCH  26  27
ENDBRANCH  25  26
ENDBRANCH  24  25
ENDBRANCH  23  24
ENDBRANCH  22  23
ENDBRANCH  21  22
ENDBRANCH   1  21
TORSDOF 13
ENDMDL
MODEL 8
REMARK VINA RESULT:    -7.488      2.716      4.765
REMARK INTER + INTRA:         -14.873
REMARK INTER:                 -13.203
REMARK INTRA:                  -1.670
REMARK UNBOUND:                -1.694
REMARK  Name = CCCCCCCCCCCC1=C(O)C(=O)C=C(Nc2ccc(C(=O)O)cc2)C1=O                    ZINC000100393415
REMARK  14 active torsions:
REMARK  status: ('A' for Active; 'I' for Inactive)
REMARK    1  A    between atoms: C_1  and  C_2
REMARK    2  A    between atoms: C_2  and  C_3
REMARK    3  A    between atoms: C_3  and  C_4
REMARK    4  A    between atoms: C_4  and  C_5
REMARK    5  A    between atoms: C_5  and  C_6
REMARK    6  A    between atoms: C_6  and  C_7
REMARK    7  A    between atoms: C_7  and  C_8
REMARK    8  A    between atoms: C_8  and  C_9
REMARK    9  A    between atoms: C_9  and  C_10
REMARK   10  A    between atoms: C_10  and  C_11
REMARK   11  A    between atoms: C_11  and  C_12
REMARK   12  A    between atoms: C_18  and  N_19
REMARK   13  A    between atoms: N_19  and  C_20
REMARK   14  A    between atoms: C_23  and  C_24
REMARK                            x       y       z     vdW  Elec       q    Type
REMARK                         _______ _______ _______ _____ _____    ______ ____
ROOT
ATOM      1  C   UNL     1       2.873   3.049 -22.889  0.00  0.00    -0.008 C 
ATOM      2  C   UNL     1       2.938   4.345 -22.960  0.00  0.00    +0.228 C 
ATOM      3  C   UNL     1       1.980   5.015 -23.528  0.00  0.00    +0.227 C 
ATOM      4  C   UNL     1       0.956   4.388 -24.026  0.00  0.00    +0.077 C 
ATOM      5  C   UNL     1       0.890   3.092 -23.956  0.00  0.00    +0.022 C 
ATOM      6  O   UNL     1       2.046   6.311 -23.598  0.00  0.00    -0.284 OA
ATOM      7  O   UNL     1       3.963   4.971 -22.461  0.00  0.00    -0.284 OA
ATOM      8  C   UNL     1       1.848   2.422 -23.388  0.00  0.00    -0.112 C 
ATOM      9  O   UNL     1       1.781   1.126 -23.318  0.00  0.00    -0.828 OA
ENDROOT
BRANCH   5  10
ATOM     10  N   UNL     1      -0.134   2.465 -24.454  0.00  0.00    -0.315 N 
ATOM     11  H   UNL     1      -0.004   1.785 -25.153  0.00  0.00    +0.152 HD
BRANCH  10  12
ATOM     12  C   UNL     1      -1.333   2.738 -24.029  0.00  0.00    +0.031 A 
ATOM     13  C   UNL     1      -1.663   2.469 -22.801  0.00  0.00    +0.024 A 
ATOM     14  C   UNL     1      -2.861   2.741 -22.376  0.00  0.00    +0.011 A 
ATOM     15  C   UNL     1      -3.730   3.281 -23.178  0.00  0.00    -0.003 A 
ATOM     16  C   UNL     1      -3.399   3.550 -24.406  0.00  0.00    +0.011 A 
ATOM     17  C   UNL     1      -2.201   3.278 -24.831  0.00  0.00    +0.024 A 
BRANCH  15  18
ATOM     18  C   UNL     1      -4.927   3.553 -22.753  0.00  0.00    +0.072 C 
ATOM     19  O   UNL     1      -5.885   3.769 -23.604  0.00  0.00    -0.545 OA
ATOM     20  O   UNL     1      -5.167   3.609 -21.476  0.00  0.00    -0.545 OA
ENDBRANCH  15  18
ENDBRANCH  10  12
ENDBRANCH   5  10
BRANCH   1  21
ATOM     21  C   UNL     1       3.831   2.379 -22.321  0.00  0.00    +0.038 C 
BRANCH  21  22
ATOM     22  C   UNL     1       4.950   2.185 -22.952  0.00  0.00    +0.005 C 
BRANCH  22  23
ATOM     23  C   UNL     1       6.080   2.265 -22.312  0.00  0.00    +0.000 C 
BRANCH  23  24
ATOM     24  C   UNL     1       7.067   2.941 -22.817  0.00  0.00    +0.000 C 
BRANCH  24  25
ATOM     25  C   UNL     1       7.265   4.174 -22.455  0.00  0.00    +0.000 C 
BRANCH  25  26
ATOM     26  C   UNL     1       7.257   4.490 -21.195  0.00  0.00    +0.000 C 
BRANCH  26  27
ATOM     27  C   UNL     1       7.112   5.731 -20.836  0.00  0.00    -0.000 C 
BRANCH  27  28
ATOM     28  C   UNL     1       7.153   6.675 -21.729  0.00  0.00    -0.000 C 
BRANCH  28  29
ATOM     29  C   UNL     1       6.258   7.617 -21.721  0.00  0.00    -0.000 C 
BRANCH  29  31
ATOM     30  C   UNL     1       4.421   8.334 -20.633  0.00  0.00    +0.004 C 
ATOM     31  C   UNL     1       5.657   7.933 -20.611  0.00  0.00    -0.003 C 
ENDBRANCH  29  31
ENDBRANCH  28  29
ENDBRANCH  27  28
ENDBRANCH  26  27
ENDBRANCH  25  26
ENDBRANCH  24  25
ENDBRANCH  23  24
ENDBRANCH  22  23
ENDBRANCH  21  22
ENDBRANCH   1  21
TORSDOF 13
ENDMDL
MODEL 9
REMARK VINA RESULT:    -7.195      2.781      5.379
REMARK INTER + INTRA:         -14.358
REMARK INTER:                 -12.664
REMARK INTRA:                  -1.694
REMARK UNBOUND:                -1.694
REMARK  Name = CCCCCCCCCCCC1=C(O)C(=O)C=C(Nc2ccc(C(=O)O)cc2)C1=O                    ZINC000100393415
REMARK  14 active torsions:
REMARK  status: ('A' for Active; 'I' for Inactive)
REMARK    1  A    between atoms: C_1  and  C_2
REMARK    2  A    between atoms: C_2  and  C_3
REMARK    3  A    between atoms: C_3  and  C_4
REMARK    4  A    between atoms: C_4  and  C_5
REMARK    5  A    between atoms: C_5  and  C_6
REMARK    6  A    between atoms: C_6  and  C_7
REMARK    7  A    between atoms: C_7  and  C_8
REMARK    8  A    between atoms: C_8  and  C_9
REMARK    9  A    between atoms: C_9  and  C_10
REMARK   10  A    between atoms: C_10  and  C_11
REMARK   11  A    between atoms: C_11  and  C_12
REMARK   12  A    between atoms: C_18  and  N_19
REMARK   13  A    between atoms: N_19  and  C_20
REMARK   14  A    between atoms: C_23  and  C_24
REMARK                            x       y       z     vdW  Elec       q    Type
REMARK                         _______ _______ _______ _____ _____    ______ ____
ROOT
ATOM      1  C   UNL     1       2.867   3.110 -22.887  0.00  0.00    -0.008 C 
ATOM      2  C   UNL     1       2.898   4.405 -22.996  0.00  0.00    +0.228 C 
ATOM      3  C   UNL     1       1.915   5.033 -23.571  0.00  0.00    +0.227 C 
ATOM      4  C   UNL     1       0.902   4.366 -24.038  0.00  0.00    +0.077 C 
ATOM      5  C   UNL     1       0.871   3.071 -23.929  0.00  0.00    +0.022 C 
ATOM      6  O   UNL     1       1.946   6.328 -23.680  0.00  0.00    -0.284 OA
ATOM      7  O   UNL     1       3.912   5.073 -22.529  0.00  0.00    -0.284 OA
ATOM      8  C   UNL     1       1.854   2.443 -23.354  0.00  0.00    -0.112 C 
ATOM      9  O   UNL     1       1.823   1.148 -23.246  0.00  0.00    -0.828 OA
ENDROOT
BRANCH   5  10
ATOM     10  N   UNL     1      -0.142   2.403 -24.396  0.00  0.00    -0.315 N 
ATOM     11  H   UNL     1       0.002   1.679 -25.046  0.00  0.00    +0.152 HD
BRANCH  10  12
ATOM     12  C   UNL     1      -1.347   2.692 -24.002  0.00  0.00    +0.031 A 
ATOM     13  C   UNL     1      -2.218   3.144 -24.855  0.00  0.00    +0.024 A 
ATOM     14  C   UNL     1      -3.423   3.433 -24.462  0.00  0.00    +0.011 A 
ATOM     15  C   UNL     1      -3.759   3.269 -23.217  0.00  0.00    -0.003 A 
ATOM     16  C   UNL     1      -2.888   2.816 -22.365  0.00  0.00    +0.011 A 
ATOM     17  C   UNL     1      -1.682   2.527 -22.758  0.00  0.00    +0.024 A 
BRANCH  15  18
ATOM     18  C   UNL     1      -4.963   3.557 -22.825  0.00  0.00    +0.072 C 
ATOM     19  O   UNL     1      -5.229   3.648 -21.556  0.00  0.00    -0.545 OA
ATOM     20  O   UNL     1      -5.903   3.755 -23.701  0.00  0.00    -0.545 OA
ENDBRANCH  15  18
ENDBRANCH  10  12
ENDBRANCH   5  10
BRANCH   1  21
ATOM     21  C   UNL     1       3.850   2.483 -22.312  0.00  0.00    +0.038 C 
BRANCH  21  22
ATOM     22  C   UNL     1       4.953   2.267 -22.964  0.00  0.00    +0.005 C 
BRANCH  22  23
ATOM     23  C   UNL     1       6.099   2.527 -22.407  0.00  0.00    +0.000 C 
BRANCH  23  24
ATOM     24  C   UNL     1       6.142   3.011 -21.202  0.00  0.00    +0.000 C 
BRANCH  24  25
ATOM     25  C   UNL     1       6.997   3.944 -20.905  0.00  0.00    +0.000 C 
BRANCH  25  26
ATOM     26  C   UNL     1       7.044   5.031 -21.616  0.00  0.00    +0.000 C 
BRANCH  26  27
ATOM     27  C   UNL     1       8.142   5.359 -22.230  0.00  0.00    -0.000 C 
BRANCH  27  28
ATOM     28  C   UNL     1       8.091   5.869 -23.425  0.00  0.00    -0.000 C 
BRANCH  28  29
ATOM     29  C   UNL     1       8.136   5.092 -24.465  0.00  0.00    -0.000 C 
BRANCH  29  31
ATOM     30  C   UNL     1       8.799   3.145 -25.383  0.00  0.00    +0.004 C 
ATOM     31  C   UNL     1       8.939   4.069 -24.479  0.00  0.00    -0.003 C 
ENDBRANCH  29  31
ENDBRANCH  28  29
ENDBRANCH  27  28
ENDBRANCH  26  27
ENDBRANCH  25  26
ENDBRANCH  24  25
ENDBRANCH  23  24
ENDBRANCH  22  23
ENDBRANCH  21  22
ENDBRANCH   1  21
TORSDOF 13
ENDMDL
