MODEL 1
REMARK VINA RESULT:   -10.035      0.000      0.000
REMARK INTER + INTRA:         -11.351
REMARK INTER:                 -11.250
REMARK INTRA:                  -0.102
REMARK UNBOUND:                -0.143
REMARK  Name = COc1ccc2c(c1O)[C@]13CCN(C)[C@H](C2)[C@@H]1C(Br)=CC=C3C               ZINC000096316403
REMARK  5 active torsions:
REMARK  status: ('A' for Active; 'I' for Inactive)
REMARK    1  A    between atoms: C_1  and  O_2
REMARK    2  A    between atoms: O_2  and  C_3
REMARK    3  A    between atoms: C_8  and  O_9
REMARK    4  A    between atoms: N_13  and  C_14
REMARK    5  A    between atoms: C_22  and  C_23
REMARK                            x       y       z     vdW  Elec       q    Type
REMARK                         _______ _______ _______ _____ _____    ______ ____
ROOT
ATOM      1  C   UNL     1      -4.872   3.461 -22.934  0.00  0.00    +0.162 A 
ATOM      2  C   UNL     1      -5.158   3.758 -24.136  0.00  0.00    +0.049 A 
ATOM      3  C   UNL     1      -4.225   3.743 -25.000  0.00  0.00    +0.008 A 
ATOM      4  C   UNL     1      -2.855   3.384 -24.580  0.00  0.00    -0.034 A 
ATOM      5  C   UNL     1      -2.697   3.146 -23.547  0.00  0.00    +0.012 A 
ATOM      6  C   UNL     1      -1.904   2.891 -23.068  0.00  0.00    +0.038 C 
ATOM      7  C   UNL     1      -3.404   3.325 -23.728  0.00  0.00    +0.067 C 
ATOM      8  C   UNL     1      -3.498   3.631 -25.173  0.00  0.00    +0.132 C 
ATOM      9  N   UNL     1      -2.529   3.570 -25.842  0.00  0.00    +0.236 N 
ATOM     10  H   UNL     1      -1.564   3.437 -26.144  0.00  0.00    +0.203 HD
ATOM     11  C   UNL     1      -1.105   3.166 -25.246  0.00  0.00    +0.078 C 
ATOM     12  C   UNL     1      -3.260   3.927 -26.894  0.00  0.00    +0.190 C 
ATOM     13  C   UNL     1      -1.703   2.608 -21.849  0.00  0.00    -0.061 C 
ATOM     14  C   UNL     1      -2.621   2.623 -20.998  0.00  0.00    +0.040 C 
ATOM     15  C   UNL     1      -0.505   2.287 -21.447  0.00  0.00    +0.001 C 
ATOM     16  C   UNL     1       0.509   2.253 -22.295  0.00  0.00    +0.011 C 
ATOM     17  C   UNL     1       0.349   2.536 -23.556  0.00  0.00    +0.005 C 
ATOM     18 BR   UNL     1       1.345   2.500 -24.375  0.00  0.00    -0.054 Br
ATOM     19  C   UNL     1      -0.799   2.852 -23.984  0.00  0.00    +0.090 C 
ATOM     20  C   UNL     1      -1.927   3.371 -25.447  0.00  0.00    +0.090 C 
ATOM     21  C   UNL     1      -3.651   3.154 -22.626  0.00  0.00    +0.163 A 
ENDROOT
BRANCH   1  23
ATOM     22  C   UNL     1      -6.725   2.650 -21.688  0.00  0.00    +0.277 C 
ATOM     23  O   UNL     1      -5.720   3.413 -21.842  0.00  0.00    -0.491 OA
ENDBRANCH   1  23
BRANCH  21  24
ATOM     24  O   UNL     1      -3.392   2.860 -21.412  0.00  0.00    -0.503 OA
ATOM     25  H   UNL     1      -4.066   2.914 -20.762  0.00  0.00    +0.292 HD
ENDBRANCH  21  24
TORSDOF 2
ENDMDL
MODEL 2
REMARK VINA RESULT:    -9.867      2.207      4.066
REMARK INTER + INTRA:         -11.164
REMARK INTER:                 -11.017
REMARK INTRA:                  -0.146
REMARK UNBOUND:                -0.143
REMARK  Name = COc1ccc2c(c1O)[C@]13CCN(C)[C@H](C2)[C@@H]1C(Br)=CC=C3C               ZINC000096316403
REMARK  5 active torsions:
REMARK  status: ('A' for Active; 'I' for Inactive)
REMARK    1  A    between atoms: C_1  and  O_2
REMARK    2  A    between atoms: O_2  and  C_3
REMARK    3  A    between atoms: C_8  and  O_9
REMARK    4  A    between atoms: N_13  and  C_14
REMARK    5  A    between atoms: C_22  and  C_23
REMARK                            x       y       z     vdW  Elec       q    Type
REMARK                         _______ _______ _______ _____ _____    ______ ____
ROOT
ATOM      1  C   UNL     1       0.155   3.023 -24.308  0.00  0.00    +0.162 A 
ATOM      2  C   UNL     1      -0.186   3.312 -25.497  0.00  0.00    +0.049 A 
ATOM      3  C   UNL     1      -1.420   3.496 -25.745  0.00  0.00    +0.008 A 
ATOM      4  C   UNL     1      -2.404   3.367 -24.650  0.00  0.00    -0.034 A 
ATOM      5  C   UNL     1      -2.036   3.120 -23.675  0.00  0.00    +0.012 A 
ATOM      6  C   UNL     1      -2.489   2.990 -22.838  0.00  0.00    +0.038 C 
ATOM      7  C   UNL     1      -1.510   3.178 -24.209  0.00  0.00    +0.067 C 
ATOM      8  C   UNL     1      -2.136   3.521 -25.505  0.00  0.00    +0.132 C 
ATOM      9  N   UNL     1      -3.306   3.658 -25.565  0.00  0.00    +0.236 N 
ATOM     10  H   UNL     1      -4.292   3.709 -25.310  0.00  0.00    +0.203 HD
ATOM     11  C   UNL     1      -4.251   3.487 -24.291  0.00  0.00    +0.078 C 
ATOM     12  C   UNL     1      -3.186   3.922 -26.863  0.00  0.00    +0.190 C 
ATOM     13  C   UNL     1      -2.067   2.698 -21.680  0.00  0.00    -0.061 C 
ATOM     14  C   UNL     1      -0.852   2.517 -21.436  0.00  0.00    +0.040 C 
ATOM     15  C   UNL     1      -2.911   2.577 -20.693  0.00  0.00    +0.001 C 
ATOM     16  C   UNL     1      -4.207   2.756 -20.883  0.00  0.00    +0.011 C 
ATOM     17  C   UNL     1      -4.686   3.057 -22.056  0.00  0.00    +0.005 C 
ATOM     18 BR   UNL     1      -5.952   3.228 -22.230  0.00  0.00    -0.054 Br
ATOM     19  C   UNL     1      -3.898   3.183 -23.039  0.00  0.00    +0.090 C 
ATOM     20  C   UNL     1      -3.635   3.552 -24.903  0.00  0.00    +0.090 C 
ATOM     21  C   UNL     1      -0.755   2.923 -23.390  0.00  0.00    +0.163 A 
ENDROOT
BRANCH   1  23
ATOM     22  C   UNL     1       2.379   2.197 -24.423  0.00  0.00    +0.277 C 
ATOM     23  O   UNL     1       1.426   2.783 -23.819  0.00  0.00    -0.491 OA
ENDBRANCH   1  23
BRANCH  21  24
ATOM     24  O   UNL     1      -0.385   2.631 -22.205  0.00  0.00    -0.503 OA
ATOM     25  H   UNL     1       0.425   2.179 -22.064  0.00  0.00    +0.292 HD
ENDBRANCH  21  24
TORSDOF 2
ENDMDL
MODEL 3
REMARK VINA RESULT:    -9.545      2.278      3.818
REMARK INTER + INTRA:         -10.804
REMARK INTER:                 -10.661
REMARK INTRA:                  -0.143
REMARK UNBOUND:                -0.143
REMARK  Name = COc1ccc2c(c1O)[C@]13CCN(C)[C@H](C2)[C@@H]1C(Br)=CC=C3C               ZINC000096316403
REMARK  5 active torsions:
REMARK  status: ('A' for Active; 'I' for Inactive)
REMARK    1  A    between atoms: C_1  and  O_2
REMARK    2  A    between atoms: O_2  and  C_3
REMARK    3  A    between atoms: C_8  and  O_9
REMARK    4  A    between atoms: N_13  and  C_14
REMARK    5  A    between atoms: C_22  and  C_23
REMARK                            x       y       z     vdW  Elec       q    Type
REMARK                         _______ _______ _______ _____ _____    ______ ____
ROOT
ATOM      1  C   UNL     1      -2.395   3.388 -25.107  0.00  0.00    +0.162 A 
ATOM      2  C   UNL     1      -3.361   3.285 -24.288  0.00  0.00    +0.049 A 
ATOM      3  C   UNL     1      -3.112   2.891 -23.104  0.00  0.00    +0.008 A 
ATOM      4  C   UNL     1      -1.719   2.571 -22.727  0.00  0.00    -0.034 A 
ATOM      5  C   UNL     1      -0.962   2.684 -23.476  0.00  0.00    +0.012 A 
ATOM      6  C   UNL     1      -0.013   2.534 -23.448  0.00  0.00    +0.038 C 
ATOM      7  C   UNL     1      -1.659   2.855 -23.700  0.00  0.00    +0.067 C 
ATOM      8  C   UNL     1      -2.613   2.661 -22.586  0.00  0.00    +0.132 C 
ATOM      9  N   UNL     1      -2.215   2.287 -21.541  0.00  0.00    +0.236 N 
ATOM     10  H   UNL     1      -1.598   1.970 -20.793  0.00  0.00    +0.203 HD
ATOM     11  C   UNL     1      -0.672   1.978 -21.277  0.00  0.00    +0.078 C 
ATOM     12  C   UNL     1      -3.460   2.332 -21.075  0.00  0.00    +0.190 C 
ATOM     13  C   UNL     1       0.893   2.664 -24.325  0.00  0.00    -0.061 C 
ATOM     14  C   UNL     1       0.647   3.051 -25.490  0.00  0.00    +0.040 C 
ATOM     15  C   UNL     1       2.132   2.388 -24.022  0.00  0.00    +0.001 C 
ATOM     16  C   UNL     1       2.458   1.975 -22.810  0.00  0.00    +0.011 C 
ATOM     17  C   UNL     1       1.560   1.828 -21.878  0.00  0.00    +0.005 C 
ATOM     18 BR   UNL     1       1.890   1.423 -20.698  0.00  0.00    -0.054 Br
ATOM     19  C   UNL     1       0.348   2.085 -22.133  0.00  0.00    +0.090 C 
ATOM     20  C   UNL     1      -1.476   2.178 -21.544  0.00  0.00    +0.090 C 
ATOM     21  C   UNL     1      -1.195   3.092 -24.717  0.00  0.00    +0.163 A 
ENDROOT
BRANCH   1  23
ATOM     22  C   UNL     1      -3.292   3.452 -27.305  0.00  0.00    +0.277 C 
ATOM     23  O   UNL     1      -2.436   3.792 -26.429  0.00  0.00    -0.491 OA
ENDBRANCH   1  23
BRANCH  21  24
ATOM     24  O   UNL     1      -0.244   3.204 -25.559  0.00  0.00    -0.503 OA
ATOM     25  H   UNL     1      -0.325   3.794 -26.284  0.00  0.00    +0.292 HD
ENDBRANCH  21  24
TORSDOF 2
ENDMDL
MODEL 4
REMARK VINA RESULT:    -9.522      1.926      4.142
REMARK INTER + INTRA:         -10.779
REMARK INTER:                 -10.634
REMARK INTRA:                  -0.144
REMARK UNBOUND:                -0.143
REMARK  Name = COc1ccc2c(c1O)[C@]13CCN(C)[C@H](C2)[C@@H]1C(Br)=CC=C3C               ZINC000096316403
REMARK  5 active torsions:
REMARK  status: ('A' for Active; 'I' for Inactive)
REMARK    1  A    between atoms: C_1  and  O_2
REMARK    2  A    between atoms: O_2  and  C_3
REMARK    3  A    between atoms: C_8  and  O_9
REMARK    4  A    between atoms: N_13  and  C_14
REMARK    5  A    between atoms: C_22  and  C_23
REMARK                            x       y       z     vdW  Elec       q    Type
REMARK                         _______ _______ _______ _____ _____    ______ ____
ROOT
ATOM      1  C   UNL     1       0.192   2.070 -21.914  0.00  0.00    +0.162 A 
ATOM      2  C   UNL     1       0.982   2.333 -22.874  0.00  0.00    +0.049 A 
ATOM      3  C   UNL     1       0.503   2.875 -23.920  0.00  0.00    +0.008 A 
ATOM      4  C   UNL     1      -0.942   3.179 -23.980  0.00  0.00    -0.034 A 
ATOM      5  C   UNL     1      -1.540   2.927 -23.128  0.00  0.00    +0.012 A 
ATOM      6  C   UNL     1      -2.480   3.033 -22.957  0.00  0.00    +0.038 C 
ATOM      7  C   UNL     1      -0.810   2.759 -23.066  0.00  0.00    +0.067 C 
ATOM      8  C   UNL     1      -0.090   3.152 -24.297  0.00  0.00    +0.132 C 
ATOM      9  N   UNL     1      -0.688   3.649 -25.184  0.00  0.00    +0.236 N 
ATOM     10  H   UNL     1      -1.443   4.037 -25.749  0.00  0.00    +0.203 HD
ATOM     11  C   UNL     1      -2.259   3.918 -25.109  0.00  0.00    +0.078 C 
ATOM     12  C   UNL     1       0.446   3.729 -25.874  0.00  0.00    +0.190 C 
ATOM     13  C   UNL     1      -3.199   2.740 -21.956  0.00  0.00    -0.061 C 
ATOM     14  C   UNL     1      -2.728   2.206 -20.927  0.00  0.00    +0.040 C 
ATOM     15  C   UNL     1      -4.478   2.996 -21.979  0.00  0.00    +0.001 C 
ATOM     16  C   UNL     1      -5.038   3.559 -23.036  0.00  0.00    +0.011 C 
ATOM     17  C   UNL     1      -4.337   3.877 -24.087  0.00  0.00    +0.005 C 
ATOM     18 BR   UNL     1      -4.895   4.426 -25.113  0.00  0.00    -0.054 Br
ATOM     19  C   UNL     1      -3.094   3.645 -24.102  0.00  0.00    +0.090 C 
ATOM     20  C   UNL     1      -1.415   3.721 -25.028  0.00  0.00    +0.090 C 
ATOM     21  C   UNL     1      -1.066   2.360 -22.026  0.00  0.00    +0.163 A 
ENDROOT
BRANCH   1  23
ATOM     22  C   UNL     1       1.623   1.475 -20.114  0.00  0.00    +0.277 C 
ATOM     23  O   UNL     1       0.493   1.488 -20.696  0.00  0.00    -0.491 OA
ENDBRANCH   1  23
BRANCH  21  24
ATOM     24  O   UNL     1      -1.837   2.086 -21.047  0.00  0.00    -0.503 OA
ATOM     25  H   UNL     1      -2.702   1.762 -21.207  0.00  0.00    +0.292 HD
ENDBRANCH  21  24
TORSDOF 2
ENDMDL
MODEL 5
REMARK VINA RESULT:    -9.390      2.518      4.909
REMARK INTER + INTRA:         -10.631
REMARK INTER:                 -10.486
REMARK INTRA:                  -0.145
REMARK UNBOUND:                -0.143
REMARK  Name = COc1ccc2c(c1O)[C@]13CCN(C)[C@H](C2)[C@@H]1C(Br)=CC=C3C               ZINC000096316403
REMARK  5 active torsions:
REMARK  status: ('A' for Active; 'I' for Inactive)
REMARK    1  A    between atoms: C_1  and  O_2
REMARK    2  A    between atoms: O_2  and  C_3
REMARK    3  A    between atoms: C_8  and  O_9
REMARK    4  A    between atoms: N_13  and  C_14
REMARK    5  A    between atoms: C_22  and  C_23
REMARK                            x       y       z     vdW  Elec       q    Type
REMARK                         _______ _______ _______ _____ _____    ______ ____
ROOT
ATOM      1  C   UNL     1      -0.002   2.247 -22.348  0.00  0.00    +0.162 A 
ATOM      2  C   UNL     1      -0.538   2.125 -21.203  0.00  0.00    +0.049 A 
ATOM      3  C   UNL     1      -1.777   2.391 -21.084  0.00  0.00    +0.008 A 
ATOM      4  C   UNL     1      -2.540   2.828 -22.271  0.00  0.00    -0.034 A 
ATOM      5  C   UNL     1      -2.014   2.905 -23.201  0.00  0.00    +0.012 A 
ATOM      6  C   UNL     1      -2.308   3.165 -24.078  0.00  0.00    +0.038 C 
ATOM      7  C   UNL     1      -1.597   2.681 -22.617  0.00  0.00    +0.067 C 
ATOM      8  C   UNL     1      -2.429   2.611 -21.395  0.00  0.00    +0.132 C 
ATOM      9  N   UNL     1      -3.572   2.893 -21.456  0.00  0.00    +0.236 N 
ATOM     10  H   UNL     1      -4.483   3.184 -21.809  0.00  0.00    +0.203 HD
ATOM     11  C   UNL     1      -4.266   3.352 -22.817  0.00  0.00    +0.078 C 
ATOM     12  C   UNL     1      -3.681   2.637 -20.155  0.00  0.00    +0.190 C 
ATOM     13  C   UNL     1      -1.698   3.261 -25.184  0.00  0.00    -0.061 C 
ATOM     14  C   UNL     1      -0.479   3.000 -25.302  0.00  0.00    +0.040 C 
ATOM     15  C   UNL     1      -2.345   3.644 -26.250  0.00  0.00    +0.001 C 
ATOM     16  C   UNL     1      -3.633   3.935 -26.194  0.00  0.00    +0.011 C 
ATOM     17  C   UNL     1      -4.300   3.850 -25.079  0.00  0.00    +0.005 C 
ATOM     18 BR   UNL     1      -5.557   4.137 -25.036  0.00  0.00    -0.054 Br
ATOM     19  C   UNL     1      -3.708   3.482 -24.023  0.00  0.00    +0.090 C 
ATOM     20  C   UNL     1      -3.776   3.091 -22.146  0.00  0.00    +0.090 C 
ATOM     21  C   UNL     1      -0.724   2.635 -23.353  0.00  0.00    +0.163 A 
ENDROOT
BRANCH   1  23
ATOM     22  C   UNL     1       2.124   1.208 -22.147  0.00  0.00    +0.277 C 
ATOM     23  O   UNL     1       1.314   2.015 -22.703  0.00  0.00    -0.491 OA
ENDBRANCH   1  23
BRANCH  21  24
ATOM     24  O   UNL     1      -0.160   2.749 -24.491  0.00  0.00    -0.503 OA
ATOM     25  H   UNL     1       0.525   2.158 -24.737  0.00  0.00    +0.292 HD
ENDBRANCH  21  24
TORSDOF 2
ENDMDL
MODEL 6
REMARK VINA RESULT:    -8.486      1.699      2.905
REMARK INTER + INTRA:          -9.621
REMARK INTER:                  -9.476
REMARK INTRA:                  -0.145
REMARK UNBOUND:                -0.143
REMARK  Name = COc1ccc2c(c1O)[C@]13CCN(C)[C@H](C2)[C@@H]1C(Br)=CC=C3C               ZINC000096316403
REMARK  5 active torsions:
REMARK  status: ('A' for Active; 'I' for Inactive)
REMARK    1  A    between atoms: C_1  and  O_2
REMARK    2  A    between atoms: O_2  and  C_3
REMARK    3  A    between atoms: C_8  and  O_9
REMARK    4  A    between atoms: N_13  and  C_14
REMARK    5  A    between atoms: C_22  and  C_23
REMARK                            x       y       z     vdW  Elec       q    Type
REMARK                         _______ _______ _______ _____ _____    ______ ____
ROOT
ATOM      1  C   UNL     1      -2.375   3.225 -23.912  0.00  0.00    +0.162 A 
ATOM      2  C   UNL     1      -1.951   3.752 -24.987  0.00  0.00    +0.049 A 
ATOM      3  C   UNL     1      -0.695   3.800 -25.183  0.00  0.00    +0.008 A 
ATOM      4  C   UNL     1       0.218   3.245 -24.162  0.00  0.00    -0.034 A 
ATOM      5  C   UNL     1      -0.220   2.817 -23.283  0.00  0.00    +0.012 A 
ATOM      6  C   UNL     1       0.178   2.409 -22.509  0.00  0.00    +0.038 C 
ATOM      7  C   UNL     1      -0.710   3.090 -23.782  0.00  0.00    +0.067 C 
ATOM      8  C   UNL     1       0.008   3.651 -24.947  0.00  0.00    +0.132 C 
ATOM      9  N   UNL     1       1.186   3.616 -24.973  0.00  0.00    +0.236 N 
ATOM     10  H   UNL     1       2.159   3.447 -24.718  0.00  0.00    +0.203 HD
ATOM     11  C   UNL     1       2.047   2.981 -23.790  0.00  0.00    +0.078 C 
ATOM     12  C   UNL     1       1.156   4.218 -26.159  0.00  0.00    +0.190 C 
ATOM     13  C   UNL     1      -0.326   1.900 -21.464  0.00  0.00    -0.061 C 
ATOM     14  C   UNL     1      -1.562   1.853 -21.271  0.00  0.00    +0.040 C 
ATOM     15  C   UNL     1       0.453   1.401 -20.545  0.00  0.00    +0.001 C 
ATOM     16  C   UNL     1       1.767   1.419 -20.686  0.00  0.00    +0.011 C 
ATOM     17  C   UNL     1       2.329   1.932 -21.744  0.00  0.00    +0.005 C 
ATOM     18 BR   UNL     1       3.612   1.944 -21.872  0.00  0.00    -0.054 Br
ATOM     19  C   UNL     1       1.606   2.425 -22.658  0.00  0.00    +0.090 C 
ATOM     20  C   UNL     1       1.471   3.295 -24.363  0.00  0.00    +0.090 C 
ATOM     21  C   UNL     1      -1.525   2.755 -23.054  0.00  0.00    +0.163 A 
ENDROOT
BRANCH   1  23
ATOM     22  C   UNL     1      -4.685   3.776 -23.841  0.00  0.00    +0.277 C 
ATOM     23  O   UNL     1      -3.685   3.068 -23.497  0.00  0.00    -0.491 OA
ENDBRANCH   1  23
BRANCH  21  24
ATOM     24  O   UNL     1      -1.978   2.231 -21.983  0.00  0.00    -0.503 OA
ATOM     25  H   UNL     1      -2.900   2.089 -21.883  0.00  0.00    +0.292 HD
ENDBRANCH  21  24
TORSDOF 2
ENDMDL
MODEL 7
REMARK VINA RESULT:    -8.475      4.312      7.417
REMARK INTER + INTRA:          -9.609
REMARK INTER:                  -9.467
REMARK INTRA:                  -0.142
REMARK UNBOUND:                -0.143
REMARK  Name = COc1ccc2c(c1O)[C@]13CCN(C)[C@H](C2)[C@@H]1C(Br)=CC=C3C               ZINC000096316403
REMARK  5 active torsions:
REMARK  status: ('A' for Active; 'I' for Inactive)
REMARK    1  A    between atoms: C_1  and  O_2
REMARK    2  A    between atoms: O_2  and  C_3
REMARK    3  A    between atoms: C_8  and  O_9
REMARK    4  A    between atoms: N_13  and  C_14
REMARK    5  A    between atoms: C_22  and  C_23
REMARK                            x       y       z     vdW  Elec       q    Type
REMARK                         _______ _______ _______ _____ _____    ______ ____
ROOT
ATOM      1  C   UNL     1       4.952   3.880 -22.769  0.00  0.00    +0.162 A 
ATOM      2  C   UNL     1       5.426   2.862 -22.176  0.00  0.00    +0.049 A 
ATOM      3  C   UNL     1       4.617   1.977 -21.750  0.00  0.00    +0.008 A 
ATOM      4  C   UNL     1       3.166   2.163 -21.960  0.00  0.00    -0.034 A 
ATOM      5  C   UNL     1       2.847   3.049 -22.470  0.00  0.00    +0.012 A 
ATOM      6  C   UNL     1       1.971   3.365 -22.708  0.00  0.00    +0.038 C 
ATOM      7  C   UNL     1       3.590   2.985 -22.380  0.00  0.00    +0.067 C 
ATOM      8  C   UNL     1       3.908   1.728 -21.666  0.00  0.00    +0.132 C 
ATOM      9  N   UNL     1       3.033   1.011 -21.338  0.00  0.00    +0.236 N 
ATOM     10  H   UNL     1       2.104   0.616 -21.190  0.00  0.00    +0.203 HD
ATOM     11  C   UNL     1       1.501   1.344 -21.634  0.00  0.00    +0.078 C 
ATOM     12  C   UNL     1       3.935   0.184 -20.817  0.00  0.00    +0.190 C 
ATOM     13  C   UNL     1       1.579   4.409 -23.310  0.00  0.00    -0.061 C 
ATOM     14  C   UNL     1       2.375   5.279 -23.729  0.00  0.00    +0.040 C 
ATOM     15  C   UNL     1       0.304   4.601 -23.511  0.00  0.00    +0.001 C 
ATOM     16  C   UNL     1      -0.589   3.721 -23.094  0.00  0.00    +0.011 C 
ATOM     17  C   UNL     1      -0.231   2.634 -22.471  0.00  0.00    +0.005 C 
ATOM     18 BR   UNL     1      -1.112   1.781 -22.069  0.00  0.00    -0.054 Br
ATOM     19  C   UNL     1       0.996   2.412 -22.258  0.00  0.00    +0.090 C 
ATOM     20  C   UNL     1       2.363   1.277 -21.534  0.00  0.00    +0.090 C 
ATOM     21  C   UNL     1       3.669   3.987 -22.924  0.00  0.00    +0.163 A 
ENDROOT
BRANCH   1  23
ATOM     22  C   UNL     1       6.897   5.137 -23.294  0.00  0.00    +0.277 C 
ATOM     23  O   UNL     1       5.639   4.952 -23.307  0.00  0.00    -0.491 OA
ENDBRANCH   1  23
BRANCH  21  24
ATOM     24  O   UNL     1       3.219   5.019 -23.523  0.00  0.00    -0.503 OA
ATOM     25  H   UNL     1       2.397   4.980 -23.972  0.00  0.00    +0.292 HD
ENDBRANCH  21  24
TORSDOF 2
ENDMDL
MODEL 8
REMARK VINA RESULT:    -8.192      1.804      3.821
REMARK INTER + INTRA:          -9.293
REMARK INTER:                  -9.149
REMARK INTRA:                  -0.144
REMARK UNBOUND:                -0.143
REMARK  Name = COc1ccc2c(c1O)[C@]13CCN(C)[C@H](C2)[C@@H]1C(Br)=CC=C3C               ZINC000096316403
REMARK  5 active torsions:
REMARK  status: ('A' for Active; 'I' for Inactive)
REMARK    1  A    between atoms: C_1  and  O_2
REMARK    2  A    between atoms: O_2  and  C_3
REMARK    3  A    between atoms: C_8  and  O_9
REMARK    4  A    between atoms: N_13  and  C_14
REMARK    5  A    between atoms: C_22  and  C_23
REMARK                            x       y       z     vdW  Elec       q    Type
REMARK                         _______ _______ _______ _____ _____    ______ ____
ROOT
ATOM      1  C   UNL     1      -2.904   2.754 -22.479  0.00  0.00    +0.162 A 
ATOM      2  C   UNL     1      -2.576   2.224 -21.372  0.00  0.00    +0.049 A 
ATOM      3  C   UNL     1      -1.350   1.948 -21.173  0.00  0.00    +0.008 A 
ATOM      4  C   UNL     1      -0.360   2.252 -22.228  0.00  0.00    -0.034 A 
ATOM      5  C   UNL     1      -0.718   2.699 -23.132  0.00  0.00    +0.012 A 
ATOM      6  C   UNL     1      -0.259   2.974 -23.931  0.00  0.00    +0.038 C 
ATOM      7  C   UNL     1      -1.246   2.557 -22.617  0.00  0.00    +0.067 C 
ATOM      8  C   UNL     1      -0.635   1.943 -21.418  0.00  0.00    +0.132 C 
ATOM      9  N   UNL     1       0.529   1.753 -21.393  0.00  0.00    +0.236 N 
ATOM     10  H   UNL     1       1.512   1.716 -21.659  0.00  0.00    +0.203 HD
ATOM     11  C   UNL     1       1.481   2.135 -22.615  0.00  0.00    +0.078 C 
ATOM     12  C   UNL     1       0.397   1.244 -20.172  0.00  0.00    +0.190 C 
ATOM     13  C   UNL     1      -0.669   3.503 -25.006  0.00  0.00    -0.061 C 
ATOM     14  C   UNL     1      -1.875   3.775 -25.202  0.00  0.00    +0.040 C 
ATOM     15  C   UNL     1       0.181   3.783 -25.956  0.00  0.00    +0.001 C 
ATOM     16  C   UNL     1       1.469   3.522 -25.813  0.00  0.00    +0.011 C 
ATOM     17  C   UNL     1       1.934   2.978 -24.725  0.00  0.00    +0.005 C 
ATOM     18 BR   UNL     1       3.193   2.728 -24.596  0.00  0.00    -0.054 Br
ATOM     19  C   UNL     1       1.141   2.692 -23.781  0.00  0.00    +0.090 C 
ATOM     20  C   UNL     1       0.862   1.974 -22.024  0.00  0.00    +0.090 C 
ATOM     21  C   UNL     1      -1.990   2.997 -23.365  0.00  0.00    +0.163 A 
ENDROOT
BRANCH   1  23
ATOM     22  C   UNL     1      -5.180   3.361 -22.172  0.00  0.00    +0.277 C 
ATOM     23  O   UNL     1      -4.164   3.133 -22.903  0.00  0.00    -0.491 OA
ENDBRANCH   1  23
BRANCH  21  24
ATOM     24  O   UNL     1      -2.347   3.530 -24.468  0.00  0.00    -0.503 OA
ATOM     25  H   UNL     1      -2.917   4.274 -24.466  0.00  0.00    +0.292 HD
ENDBRANCH  21  24
TORSDOF 2
ENDMDL
MODEL 9
REMARK VINA RESULT:    -8.096      3.280      6.286
REMARK INTER + INTRA:          -9.186
REMARK INTER:                  -9.042
REMARK INTRA:                  -0.143
REMARK UNBOUND:                -0.143
REMARK  Name = COc1ccc2c(c1O)[C@]13CCN(C)[C@H](C2)[C@@H]1C(Br)=CC=C3C               ZINC000096316403
REMARK  5 active torsions:
REMARK  status: ('A' for Active; 'I' for Inactive)
REMARK    1  A    between atoms: C_1  and  O_2
REMARK    2  A    between atoms: O_2  and  C_3
REMARK    3  A    between atoms: C_8  and  O_9
REMARK    4  A    between atoms: N_13  and  C_14
REMARK    5  A    between atoms: C_22  and  C_23
REMARK                            x       y       z     vdW  Elec       q    Type
REMARK                         _______ _______ _______ _____ _____    ______ ____
ROOT
ATOM      1  C   UNL     1       3.290   2.428 -23.253  0.00  0.00    +0.162 A 
ATOM      2  C   UNL     1       3.319   1.916 -22.090  0.00  0.00    +0.049 A 
ATOM      3  C   UNL     1       2.217   1.727 -21.484  0.00  0.00    +0.008 A 
ATOM      4  C   UNL     1       0.952   2.106 -22.148  0.00  0.00    -0.034 A 
ATOM      5  C   UNL     1       1.013   2.532 -23.129  0.00  0.00    +0.012 A 
ATOM      6  C   UNL     1       0.331   2.843 -23.730  0.00  0.00    +0.038 C 
ATOM      7  C   UNL     1       1.673   2.350 -22.819  0.00  0.00    +0.067 C 
ATOM      8  C   UNL     1       1.463   1.775 -21.473  0.00  0.00    +0.132 C 
ATOM      9  N   UNL     1       0.366   1.667 -21.053  0.00  0.00    +0.236 N 
ATOM     10  H   UNL     1      -0.650   1.701 -20.970  0.00  0.00    +0.203 HD
ATOM     11  C   UNL     1      -0.914   2.122 -21.889  0.00  0.00    +0.078 C 
ATOM     12  C   UNL     1       0.867   1.143 -19.938  0.00  0.00    +0.190 C 
ATOM     13  C   UNL     1       0.388   3.348 -24.890  0.00  0.00    -0.061 C 
ATOM     14  C   UNL     1       1.473   3.534 -25.487  0.00  0.00    +0.040 C 
ATOM     15  C   UNL     1      -0.711   3.693 -25.502  0.00  0.00    +0.001 C 
ATOM     16  C   UNL     1      -1.889   3.523 -24.928  0.00  0.00    +0.011 C 
ATOM     17  C   UNL     1      -1.995   3.008 -23.737  0.00  0.00    +0.005 C 
ATOM     18 BR   UNL     1      -3.151   2.847 -23.186  0.00  0.00    -0.054 Br
ATOM     19  C   UNL     1      -0.952   2.661 -23.111  0.00  0.00    +0.090 C 
ATOM     20  C   UNL     1      -0.145   1.915 -21.538  0.00  0.00    +0.090 C 
ATOM     21  C   UNL     1       2.149   2.740 -23.783  0.00  0.00    +0.163 A 
ENDROOT
BRANCH   1  23
ATOM     22  C   UNL     1       5.456   3.262 -23.754  0.00  0.00    +0.277 C 
ATOM     23  O   UNL     1       4.355   2.719 -24.085  0.00  0.00    -0.491 OA
ENDBRANCH   1  23
BRANCH  21  24
ATOM     24  O   UNL     1       2.148   3.252 -24.951  0.00  0.00    -0.503 OA
ATOM     25  H   UNL     1       1.369   3.652 -25.287  0.00  0.00    +0.292 HD
ENDBRANCH  21  24
TORSDOF 2
ENDMDL
