MODEL 1
REMARK VINA RESULT:    -9.801      0.000      0.000
REMARK INTER + INTRA:         -11.425
REMARK INTER:                 -10.911
REMARK INTRA:                  -0.514
REMARK UNBOUND:                -0.478
REMARK  Name = ZINC000013334942
REMARK  4 active torsions:
REMARK  status: ('A' for Active; 'I' for Inactive)
REMARK    1  A    between atoms: C_1  and  C_2
REMARK    2  A    between atoms: C_3  and  O_4
REMARK    3  A    between atoms: C_6  and  O_7
REMARK    4  A    between atoms: C_11  and  C_12
REMARK                            x       y       z     vdW  Elec       q    Type
REMARK                         _______ _______ _______ _____ _____    ______ ____
ROOT
ATOM      1  C   UNL     1      -2.393   3.536 -25.923  0.00  0.00    +0.051 C 
ATOM      2  C   UNL     1      -3.149   3.521 -24.865  0.00  0.00    +0.033 A 
ATOM      3  C   UNL     1      -4.411   3.814 -24.964  0.00  0.00    +0.127 A 
ATOM      4  C   UNL     1      -5.168   3.800 -23.908  0.00  0.00    +0.092 A 
ATOM      5  C   UNL     1      -4.661   3.493 -22.750  0.00  0.00    +0.134 A 
ATOM      6  C   UNL     1      -3.398   3.200 -22.650  0.00  0.00    +0.101 A 
ATOM      7  C   UNL     1      -2.892   2.894 -21.493  0.00  0.00    +0.174 C 
ATOM      8  O   UNL     1      -3.648   2.879 -20.436  0.00  0.00    -0.292 OA
ATOM      9  C   UNL     1      -1.629   2.601 -21.393  0.00  0.00    +0.129 C 
ATOM     10  C   UNL     1      -0.872   2.615 -22.452  0.00  0.00    +0.211 C 
ATOM     11  O   UNL     1      -1.380   2.922 -23.608  0.00  0.00    -0.483 OA
ATOM     12  C   UNL     1      -2.642   3.215 -23.708  0.00  0.00    +0.142 A 
ENDROOT
BRANCH  10  13
ATOM     13  C   UNL     1       0.390   2.322 -22.352  0.00  0.00    -0.007 A 
ATOM     14  C   UNL     1       0.811   1.590 -21.364  0.00  0.00    +0.007 A 
ATOM     15  C   UNL     1       2.074   1.297 -21.264  0.00  0.00    +0.000 A 
ATOM     16  C   UNL     1       2.916   1.737 -22.153  0.00  0.00    +0.000 A 
ATOM     17  C   UNL     1       2.494   2.469 -23.141  0.00  0.00    +0.000 A 
ATOM     18  C   UNL     1       1.231   2.762 -23.240  0.00  0.00    +0.007 A 
ENDBRANCH  10  13
BRANCH   5  19
ATOM     19  O   UNL     1      -5.417   3.479 -21.692  0.00  0.00    -0.506 OA
ATOM     20  H   UNL     1      -5.182   3.989 -20.942  0.00  0.00    +0.292 HD
ENDBRANCH   5  19
BRANCH   3  21
ATOM     21  O   UNL     1      -4.918   4.121 -26.122  0.00  0.00    -0.506 OA
ATOM     22  H   UNL     1      -4.770   4.971 -26.488  0.00  0.00    +0.292 HD
ENDBRANCH   3  21
TORSDOF 3
ENDMDL
MODEL 2
REMARK VINA RESULT:    -9.764      1.034      2.780
REMARK INTER + INTRA:         -11.383
REMARK INTER:                 -10.864
REMARK INTRA:                  -0.520
REMARK UNBOUND:                -0.478
REMARK  Name = ZINC000013334942
REMARK  4 active torsions:
REMARK  status: ('A' for Active; 'I' for Inactive)
REMARK    1  A    between atoms: C_1  and  C_2
REMARK    2  A    between atoms: C_3  and  O_4
REMARK    3  A    between atoms: C_6  and  O_7
REMARK    4  A    between atoms: C_11  and  C_12
REMARK                            x       y       z     vdW  Elec       q    Type
REMARK                         _______ _______ _______ _____ _____    ______ ____
ROOT
ATOM      1  C   UNL     1      -4.043   2.698 -20.955  0.00  0.00    +0.051 C 
ATOM      2  C   UNL     1      -4.180   3.079 -22.191  0.00  0.00    +0.033 A 
ATOM      3  C   UNL     1      -5.342   3.464 -22.627  0.00  0.00    +0.127 A 
ATOM      4  C   UNL     1      -5.480   3.844 -23.862  0.00  0.00    +0.092 A 
ATOM      5  C   UNL     1      -4.454   3.839 -24.662  0.00  0.00    +0.134 A 
ATOM      6  C   UNL     1      -3.292   3.454 -24.226  0.00  0.00    +0.101 A 
ATOM      7  C   UNL     1      -2.267   3.449 -25.025  0.00  0.00    +0.174 C 
ATOM      8  O   UNL     1      -2.404   3.829 -26.260  0.00  0.00    -0.292 OA
ATOM      9  C   UNL     1      -1.104   3.063 -24.589  0.00  0.00    +0.129 C 
ATOM     10  C   UNL     1      -0.967   2.683 -23.352  0.00  0.00    +0.211 C 
ATOM     11  O   UNL     1      -1.993   2.688 -22.554  0.00  0.00    -0.483 OA
ATOM     12  C   UNL     1      -3.155   3.074 -22.990  0.00  0.00    +0.142 A 
ENDROOT
BRANCH  10  13
ATOM     13  C   UNL     1       0.195   2.297 -22.916  0.00  0.00    -0.007 A 
ATOM     14  C   UNL     1       0.302   1.767 -21.734  0.00  0.00    +0.007 A 
ATOM     15  C   UNL     1       1.465   1.381 -21.297  0.00  0.00    +0.000 A 
ATOM     16  C   UNL     1       2.520   1.526 -22.042  0.00  0.00    +0.000 A 
ATOM     17  C   UNL     1       2.412   2.057 -23.225  0.00  0.00    +0.000 A 
ATOM     18  C   UNL     1       1.250   2.442 -23.661  0.00  0.00    +0.007 A 
ENDBRANCH  10  13
BRANCH   5  19
ATOM     19  O   UNL     1      -4.591   4.220 -25.897  0.00  0.00    -0.506 OA
ATOM     20  H   UNL     1      -5.445   4.276 -26.278  0.00  0.00    +0.292 HD
ENDBRANCH   5  19
BRANCH   3  21
ATOM     21  O   UNL     1      -6.368   3.469 -21.828  0.00  0.00    -0.506 OA
ATOM     22  H   UNL     1      -6.527   2.736 -21.266  0.00  0.00    +0.292 HD
ENDBRANCH   3  21
TORSDOF 3
ENDMDL
MODEL 3
REMARK VINA RESULT:    -9.513      2.196      5.847
REMARK INTER + INTRA:         -11.103
REMARK INTER:                 -10.583
REMARK INTRA:                  -0.520
REMARK UNBOUND:                -0.478
REMARK  Name = ZINC000013334942
REMARK  4 active torsions:
REMARK  status: ('A' for Active; 'I' for Inactive)
REMARK    1  A    between atoms: C_1  and  C_2
REMARK    2  A    between atoms: C_3  and  O_4
REMARK    3  A    between atoms: C_6  and  O_7
REMARK    4  A    between atoms: C_11  and  C_12
REMARK                            x       y       z     vdW  Elec       q    Type
REMARK                         _______ _______ _______ _____ _____    ______ ____
ROOT
ATOM      1  C   UNL     1       1.812   2.694 -25.493  0.00  0.00    +0.051 C 
ATOM      2  C   UNL     1       2.010   2.215 -24.300  0.00  0.00    +0.033 A 
ATOM      3  C   UNL     1       3.192   1.799 -23.955  0.00  0.00    +0.127 A 
ATOM      4  C   UNL     1       3.391   1.320 -22.763  0.00  0.00    +0.092 A 
ATOM      5  C   UNL     1       2.406   1.258 -21.916  0.00  0.00    +0.134 A 
ATOM      6  C   UNL     1       1.225   1.674 -22.261  0.00  0.00    +0.101 A 
ATOM      7  C   UNL     1       0.241   1.611 -21.414  0.00  0.00    +0.174 C 
ATOM      8  O   UNL     1       0.439   1.133 -20.221  0.00  0.00    -0.292 OA
ATOM      9  C   UNL     1      -0.942   2.028 -21.759  0.00  0.00    +0.129 C 
ATOM     10  C   UNL     1      -1.140   2.507 -22.952  0.00  0.00    +0.211 C 
ATOM     11  O   UNL     1      -0.155   2.569 -23.798  0.00  0.00    -0.483 OA
ATOM     12  C   UNL     1       1.027   2.153 -23.453  0.00  0.00    +0.142 A 
ENDROOT
BRANCH  10  13
ATOM     13  C   UNL     1      -2.322   2.923 -23.297  0.00  0.00    -0.007 A 
ATOM     14  C   UNL     1      -3.277   2.971 -22.416  0.00  0.00    +0.007 A 
ATOM     15  C   UNL     1      -4.460   3.387 -22.761  0.00  0.00    +0.000 A 
ATOM     16  C   UNL     1      -4.687   3.755 -23.987  0.00  0.00    +0.000 A 
ATOM     17  C   UNL     1      -3.731   3.706 -24.868  0.00  0.00    +0.000 A 
ATOM     18  C   UNL     1      -2.549   3.290 -24.523  0.00  0.00    +0.007 A 
ENDBRANCH  10  13
BRANCH   5  19
ATOM     19  O   UNL     1       2.605   0.779 -20.723  0.00  0.00    -0.506 OA
ATOM     20  H   UNL     1       3.299   1.117 -20.192  0.00  0.00    +0.292 HD
ENDBRANCH   5  19
BRANCH   3  21
ATOM     21  O   UNL     1       4.177   1.861 -24.803  0.00  0.00    -0.506 OA
ATOM     22  H   UNL     1       4.131   2.448 -25.532  0.00  0.00    +0.292 HD
ENDBRANCH   3  21
TORSDOF 3
ENDMDL
MODEL 4
REMARK VINA RESULT:    -9.291      1.981      6.335
REMARK INTER + INTRA:         -10.855
REMARK INTER:                 -10.334
REMARK INTRA:                  -0.521
REMARK UNBOUND:                -0.478
REMARK  Name = ZINC000013334942
REMARK  4 active torsions:
REMARK  status: ('A' for Active; 'I' for Inactive)
REMARK    1  A    between atoms: C_1  and  C_2
REMARK    2  A    between atoms: C_3  and  O_4
REMARK    3  A    between atoms: C_6  and  O_7
REMARK    4  A    between atoms: C_11  and  C_12
REMARK                            x       y       z     vdW  Elec       q    Type
REMARK                         _______ _______ _______ _____ _____    ______ ____
ROOT
ATOM      1  C   UNL     1       0.078   1.494 -20.754  0.00  0.00    +0.051 C 
ATOM      2  C   UNL     1       0.845   1.783 -21.763  0.00  0.00    +0.033 A 
ATOM      3  C   UNL     1       2.114   1.506 -21.714  0.00  0.00    +0.127 A 
ATOM      4  C   UNL     1       2.883   1.795 -22.722  0.00  0.00    +0.092 A 
ATOM      5  C   UNL     1       2.380   2.361 -23.780  0.00  0.00    +0.134 A 
ATOM      6  C   UNL     1       1.112   2.637 -23.829  0.00  0.00    +0.101 A 
ATOM      7  C   UNL     1       0.610   3.203 -24.886  0.00  0.00    +0.174 C 
ATOM      8  O   UNL     1       1.378   3.492 -25.895  0.00  0.00    -0.292 OA
ATOM      9  C   UNL     1      -0.659   3.480 -24.936  0.00  0.00    +0.129 C 
ATOM     10  C   UNL     1      -1.428   3.191 -23.926  0.00  0.00    +0.211 C 
ATOM     11  O   UNL     1      -0.925   2.626 -22.869  0.00  0.00    -0.483 OA
ATOM     12  C   UNL     1       0.344   2.349 -22.820  0.00  0.00    +0.142 A 
ENDROOT
BRANCH  10  13
ATOM     13  C   UNL     1      -2.696   3.468 -23.975  0.00  0.00    -0.007 A 
ATOM     14  C   UNL     1      -3.462   3.186 -22.963  0.00  0.00    +0.007 A 
ATOM     15  C   UNL     1      -4.732   3.463 -23.012  0.00  0.00    +0.000 A 
ATOM     16  C   UNL     1      -5.235   4.022 -24.072  0.00  0.00    +0.000 A 
ATOM     17  C   UNL     1      -4.468   4.304 -25.084  0.00  0.00    +0.000 A 
ATOM     18  C   UNL     1      -3.200   4.027 -25.035  0.00  0.00    +0.007 A 
ENDBRANCH  10  13
BRANCH   5  19
ATOM     19  O   UNL     1       3.148   2.649 -24.789  0.00  0.00    -0.506 OA
ATOM     20  H   UNL     1       4.002   2.269 -24.852  0.00  0.00    +0.292 HD
ENDBRANCH   5  19
BRANCH   3  21
ATOM     21  O   UNL     1       2.616   0.940 -20.656  0.00  0.00    -0.506 OA
ATOM     22  H   UNL     1       2.746   0.012 -20.639  0.00  0.00    +0.292 HD
ENDBRANCH   3  21
TORSDOF 3
ENDMDL
MODEL 5
REMARK VINA RESULT:    -8.955      2.813      6.529
REMARK INTER + INTRA:         -10.480
REMARK INTER:                  -9.998
REMARK INTRA:                  -0.482
REMARK UNBOUND:                -0.478
REMARK  Name = ZINC000013334942
REMARK  4 active torsions:
REMARK  status: ('A' for Active; 'I' for Inactive)
REMARK    1  A    between atoms: C_1  and  C_2
REMARK    2  A    between atoms: C_3  and  O_4
REMARK    3  A    between atoms: C_6  and  O_7
REMARK    4  A    between atoms: C_11  and  C_12
REMARK                            x       y       z     vdW  Elec       q    Type
REMARK                         _______ _______ _______ _____ _____    ______ ____
ROOT
ATOM      1  C   UNL     1       2.681   5.612 -23.079  0.00  0.00    +0.051 C 
ATOM      2  C   UNL     1       3.171   4.408 -23.034  0.00  0.00    +0.033 A 
ATOM      3  C   UNL     1       4.454   4.225 -23.138  0.00  0.00    +0.127 A 
ATOM      4  C   UNL     1       4.945   3.022 -23.093  0.00  0.00    +0.092 A 
ATOM      5  C   UNL     1       4.151   2.002 -22.945  0.00  0.00    +0.134 A 
ATOM      6  C   UNL     1       2.869   2.185 -22.841  0.00  0.00    +0.101 A 
ATOM      7  C   UNL     1       2.076   1.166 -22.692  0.00  0.00    +0.174 C 
ATOM      8  O   UNL     1       2.566  -0.037 -22.648  0.00  0.00    -0.292 OA
ATOM      9  C   UNL     1       0.793   1.349 -22.589  0.00  0.00    +0.129 C 
ATOM     10  C   UNL     1       0.303   2.554 -22.633  0.00  0.00    +0.211 C 
ATOM     11  O   UNL     1       1.096   3.573 -22.782  0.00  0.00    -0.483 OA
ATOM     12  C   UNL     1       2.379   3.389 -22.886  0.00  0.00    +0.142 A 
ENDROOT
BRANCH  10  13
ATOM     13  C   UNL     1      -0.980   2.737 -22.530  0.00  0.00    -0.007 A 
ATOM     14  C   UNL     1      -1.598   2.398 -21.438  0.00  0.00    +0.007 A 
ATOM     15  C   UNL     1      -2.881   2.582 -21.334  0.00  0.00    +0.000 A 
ATOM     16  C   UNL     1      -3.545   3.105 -22.321  0.00  0.00    +0.000 A 
ATOM     17  C   UNL     1      -2.926   3.444 -23.414  0.00  0.00    +0.000 A 
ATOM     18  C   UNL     1      -1.643   3.260 -23.517  0.00  0.00    +0.007 A 
ENDBRANCH  10  13
BRANCH   5  19
ATOM     19  O   UNL     1       4.641   0.798 -22.900  0.00  0.00    -0.506 OA
ATOM     20  H   UNL     1       4.624   0.257 -23.665  0.00  0.00    +0.292 HD
ENDBRANCH   5  19
BRANCH   3  21
ATOM     21  O   UNL     1       5.247   5.244 -23.287  0.00  0.00    -0.506 OA
ATOM     22  H   UNL     1       6.136   5.193 -22.994  0.00  0.00    +0.292 HD
ENDBRANCH   3  21
TORSDOF 3
ENDMDL
MODEL 6
REMARK VINA RESULT:    -8.662      2.853      6.720
REMARK INTER + INTRA:         -10.152
REMARK INTER:                  -9.657
REMARK INTRA:                  -0.495
REMARK UNBOUND:                -0.478
REMARK  Name = ZINC000013334942
REMARK  4 active torsions:
REMARK  status: ('A' for Active; 'I' for Inactive)
REMARK    1  A    between atoms: C_1  and  C_2
REMARK    2  A    between atoms: C_3  and  O_4
REMARK    3  A    between atoms: C_6  and  O_7
REMARK    4  A    between atoms: C_11  and  C_12
REMARK                            x       y       z     vdW  Elec       q    Type
REMARK                         _______ _______ _______ _____ _____    ______ ____
ROOT
ATOM      1  C   UNL     1       2.647   0.526 -22.834  0.00  0.00    +0.051 C 
ATOM      2  C   UNL     1       3.169   1.713 -22.928  0.00  0.00    +0.033 A 
ATOM      3  C   UNL     1       4.461   1.855 -22.938  0.00  0.00    +0.127 A 
ATOM      4  C   UNL     1       4.985   3.041 -23.032  0.00  0.00    +0.092 A 
ATOM      5  C   UNL     1       4.215   4.086 -23.116  0.00  0.00    +0.134 A 
ATOM      6  C   UNL     1       2.923   3.944 -23.105  0.00  0.00    +0.101 A 
ATOM      7  C   UNL     1       2.154   4.988 -23.189  0.00  0.00    +0.174 C 
ATOM      8  O   UNL     1       2.676   6.175 -23.283  0.00  0.00    -0.292 OA
ATOM      9  C   UNL     1       0.861   4.846 -23.179  0.00  0.00    +0.129 C 
ATOM     10  C   UNL     1       0.338   3.659 -23.085  0.00  0.00    +0.211 C 
ATOM     11  O   UNL     1       1.108   2.615 -23.001  0.00  0.00    -0.483 OA
ATOM     12  C   UNL     1       2.400   2.757 -23.012  0.00  0.00    +0.142 A 
ENDROOT
BRANCH  10  13
ATOM     13  C   UNL     1      -0.954   3.516 -23.075  0.00  0.00    -0.007 A 
ATOM     14  C   UNL     1      -1.519   2.782 -22.163  0.00  0.00    +0.007 A 
ATOM     15  C   UNL     1      -2.812   2.640 -22.153  0.00  0.00    +0.000 A 
ATOM     16  C   UNL     1      -3.538   3.231 -23.054  0.00  0.00    +0.000 A 
ATOM     17  C   UNL     1      -2.972   3.966 -23.966  0.00  0.00    +0.000 A 
ATOM     18  C   UNL     1      -1.680   4.108 -23.976  0.00  0.00    +0.007 A 
ENDBRANCH  10  13
BRANCH   5  19
ATOM     19  O   UNL     1       4.737   5.273 -23.209  0.00  0.00    -0.506 OA
ATOM     20  H   UNL     1       4.976   5.742 -22.434  0.00  0.00    +0.292 HD
ENDBRANCH   5  19
BRANCH   3  21
ATOM     21  O   UNL     1       5.231   0.810 -22.855  0.00  0.00    -0.506 OA
ATOM     22  H   UNL     1       5.311   0.351 -22.042  0.00  0.00    +0.292 HD
ENDBRANCH   3  21
TORSDOF 3
ENDMDL
MODEL 7
REMARK VINA RESULT:    -8.256      1.765      3.858
REMARK INTER + INTRA:          -9.699
REMARK INTER:                  -9.205
REMARK INTRA:                  -0.493
REMARK UNBOUND:                -0.478
REMARK  Name = ZINC000013334942
REMARK  4 active torsions:
REMARK  status: ('A' for Active; 'I' for Inactive)
REMARK    1  A    between atoms: C_1  and  C_2
REMARK    2  A    between atoms: C_3  and  O_4
REMARK    3  A    between atoms: C_6  and  O_7
REMARK    4  A    between atoms: C_11  and  C_12
REMARK                            x       y       z     vdW  Elec       q    Type
REMARK                         _______ _______ _______ _____ _____    ______ ____
ROOT
ATOM      1  C   UNL     1      -1.658   2.249 -21.309  0.00  0.00    +0.051 C 
ATOM      2  C   UNL     1      -1.498   2.626 -22.543  0.00  0.00    +0.033 A 
ATOM      3  C   UNL     1      -2.524   3.002 -23.246  0.00  0.00    +0.127 A 
ATOM      4  C   UNL     1      -2.365   3.379 -24.480  0.00  0.00    +0.092 A 
ATOM      5  C   UNL     1      -1.178   3.379 -25.011  0.00  0.00    +0.134 A 
ATOM      6  C   UNL     1      -0.152   3.003 -24.308  0.00  0.00    +0.101 A 
ATOM      7  C   UNL     1       1.035   3.003 -24.839  0.00  0.00    +0.174 C 
ATOM      8  O   UNL     1       1.195   3.379 -26.073  0.00  0.00    -0.292 OA
ATOM      9  C   UNL     1       2.062   2.627 -24.136  0.00  0.00    +0.129 C 
ATOM     10  C   UNL     1       1.902   2.250 -22.901  0.00  0.00    +0.211 C 
ATOM     11  O   UNL     1       0.715   2.250 -22.371  0.00  0.00    -0.483 OA
ATOM     12  C   UNL     1      -0.312   2.626 -23.074  0.00  0.00    +0.142 A 
ENDROOT
BRANCH  10  13
ATOM     13  C   UNL     1       2.928   1.874 -22.198  0.00  0.00    -0.007 A 
ATOM     14  C   UNL     1       2.893   0.749 -21.548  0.00  0.00    +0.007 A 
ATOM     15  C   UNL     1       3.920   0.372 -20.844  0.00  0.00    +0.000 A 
ATOM     16  C   UNL     1       4.981   1.121 -20.792  0.00  0.00    +0.000 A 
ATOM     17  C   UNL     1       5.016   2.246 -21.442  0.00  0.00    +0.000 A 
ATOM     18  C   UNL     1       3.990   2.622 -22.145  0.00  0.00    +0.007 A 
ENDBRANCH  10  13
BRANCH   5  19
ATOM     19  O   UNL     1      -1.018   3.755 -26.245  0.00  0.00    -0.506 OA
ATOM     20  H   UNL     1      -1.052   4.666 -26.466  0.00  0.00    +0.292 HD
ENDBRANCH   5  19
BRANCH   3  21
ATOM     21  O   UNL     1      -3.712   3.002 -22.715  0.00  0.00    -0.506 OA
ATOM     22  H   UNL     1      -3.819   2.795 -21.808  0.00  0.00    +0.292 HD
ENDBRANCH   3  21
TORSDOF 3
ENDMDL
MODEL 8
REMARK VINA RESULT:    -7.905      2.775      4.569
REMARK INTER + INTRA:          -9.307
REMARK INTER:                  -8.813
REMARK INTRA:                  -0.494
REMARK UNBOUND:                -0.478
REMARK  Name = ZINC000013334942
REMARK  4 active torsions:
REMARK  status: ('A' for Active; 'I' for Inactive)
REMARK    1  A    between atoms: C_1  and  C_2
REMARK    2  A    between atoms: C_3  and  O_4
REMARK    3  A    between atoms: C_6  and  O_7
REMARK    4  A    between atoms: C_11  and  C_12
REMARK                            x       y       z     vdW  Elec       q    Type
REMARK                         _______ _______ _______ _____ _____    ______ ____
ROOT
ATOM      1  C   UNL     1       0.905   4.036 -25.485  0.00  0.00    +0.051 C 
ATOM      2  C   UNL     1       0.520   3.316 -24.473  0.00  0.00    +0.033 A 
ATOM      3  C   UNL     1      -0.717   2.928 -24.384  0.00  0.00    +0.127 A 
ATOM      4  C   UNL     1      -1.103   2.209 -23.373  0.00  0.00    +0.092 A 
ATOM      5  C   UNL     1      -0.249   1.877 -22.449  0.00  0.00    +0.134 A 
ATOM      6  C   UNL     1       0.988   2.265 -22.537  0.00  0.00    +0.101 A 
ATOM      7  C   UNL     1       1.840   1.934 -21.613  0.00  0.00    +0.174 C 
ATOM      8  O   UNL     1       1.455   1.215 -20.601  0.00  0.00    -0.292 OA
ATOM      9  C   UNL     1       3.078   2.322 -21.701  0.00  0.00    +0.129 C 
ATOM     10  C   UNL     1       3.463   3.042 -22.714  0.00  0.00    +0.211 C 
ATOM     11  O   UNL     1       2.610   3.373 -23.637  0.00  0.00    -0.483 OA
ATOM     12  C   UNL     1       1.373   2.985 -23.549  0.00  0.00    +0.142 A 
ENDROOT
BRANCH  10  13
ATOM     13  C   UNL     1       4.701   3.431 -22.802  0.00  0.00    -0.007 A 
ATOM     14  C   UNL     1       4.974   4.679 -23.039  0.00  0.00    +0.007 A 
ATOM     15  C   UNL     1       6.212   5.068 -23.127  0.00  0.00    +0.000 A 
ATOM     16  C   UNL     1       7.176   4.208 -22.979  0.00  0.00    +0.000 A 
ATOM     17  C   UNL     1       6.901   2.958 -22.743  0.00  0.00    +0.000 A 
ATOM     18  C   UNL     1       5.664   2.570 -22.654  0.00  0.00    +0.007 A 
ENDBRANCH  10  13
BRANCH   5  19
ATOM     19  O   UNL     1      -0.634   1.158 -21.437  0.00  0.00    -0.506 OA
ATOM     20  H   UNL     1      -0.400   1.412 -20.565  0.00  0.00    +0.292 HD
ENDBRANCH   5  19
BRANCH   3  21
ATOM     21  O   UNL     1      -1.570   3.259 -25.308  0.00  0.00    -0.506 OA
ATOM     22  H   UNL     1      -1.418   4.019 -25.836  0.00  0.00    +0.292 HD
ENDBRANCH   3  21
TORSDOF 3
ENDMDL
MODEL 9
REMARK VINA RESULT:    -6.951      4.264      7.007
REMARK INTER + INTRA:          -8.242
REMARK INTER:                  -7.764
REMARK INTRA:                  -0.478
REMARK UNBOUND:                -0.478
REMARK  Name = ZINC000013334942
REMARK  4 active torsions:
REMARK  status: ('A' for Active; 'I' for Inactive)
REMARK    1  A    between atoms: C_1  and  C_2
REMARK    2  A    between atoms: C_3  and  O_4
REMARK    3  A    between atoms: C_6  and  O_7
REMARK    4  A    between atoms: C_11  and  C_12
REMARK                            x       y       z     vdW  Elec       q    Type
REMARK                         _______ _______ _______ _____ _____    ______ ____
ROOT
ATOM      1  C   UNL     1       1.786   4.731 -23.566  0.00  0.00    +0.051 C 
ATOM      2  C   UNL     1       2.089   3.553 -23.107  0.00  0.00    +0.033 A 
ATOM      3  C   UNL     1       1.151   2.680 -22.890  0.00  0.00    +0.127 A 
ATOM      4  C   UNL     1       1.453   1.502 -22.430  0.00  0.00    +0.092 A 
ATOM      5  C   UNL     1       2.694   1.197 -22.189  0.00  0.00    +0.134 A 
ATOM      6  C   UNL     1       3.632   2.071 -22.406  0.00  0.00    +0.101 A 
ATOM      7  C   UNL     1       4.872   1.766 -22.164  0.00  0.00    +0.174 C 
ATOM      8  O   UNL     1       5.174   0.588 -21.705  0.00  0.00    -0.292 OA
ATOM      9  C   UNL     1       5.810   2.639 -22.382  0.00  0.00    +0.129 C 
ATOM     10  C   UNL     1       5.508   3.818 -22.841  0.00  0.00    +0.211 C 
ATOM     11  O   UNL     1       4.267   4.122 -23.083  0.00  0.00    -0.483 OA
ATOM     12  C   UNL     1       3.329   3.249 -22.865  0.00  0.00    +0.142 A 
ENDROOT
BRANCH  10  13
ATOM     13  C   UNL     1       6.446   4.691 -23.059  0.00  0.00    -0.007 A 
ATOM     14  C   UNL     1       7.306   4.496 -24.013  0.00  0.00    +0.007 A 
ATOM     15  C   UNL     1       8.245   5.369 -24.231  0.00  0.00    +0.000 A 
ATOM     16  C   UNL     1       8.322   6.438 -23.494  0.00  0.00    +0.000 A 
ATOM     17  C   UNL     1       7.460   6.633 -22.540  0.00  0.00    +0.000 A 
ATOM     18  C   UNL     1       6.522   5.760 -22.322  0.00  0.00    +0.007 A 
ENDBRANCH  10  13
BRANCH   5  19
ATOM     19  O   UNL     1       2.996   0.019 -21.729  0.00  0.00    -0.506 OA
ATOM     20  H   UNL     1       3.768  -0.097 -21.211  0.00  0.00    +0.292 HD
ENDBRANCH   5  19
BRANCH   3  21
ATOM     21  O   UNL     1      -0.090   2.985 -23.131  0.00  0.00    -0.506 OA
ATOM     22  H   UNL     1      -0.351   3.233 -23.996  0.00  0.00    +0.292 HD
ENDBRANCH   3  21
TORSDOF 3
ENDMDL
