MODEL 1
REMARK VINA RESULT:    -9.790      0.000      0.000
REMARK INTER + INTRA:         -12.100
REMARK INTER:                 -11.517
REMARK INTRA:                  -0.582
REMARK UNBOUND:                -0.593
REMARK  Name = ZINC000000899902
REMARK  6 active torsions:
REMARK  status: ('A' for Active; 'I' for Inactive)
REMARK    1  A    between atoms: C_1  and  C_2
REMARK    2  A    between atoms: C_2  and  C_3
REMARK    3  A    between atoms: C_4  and  C_5
REMARK    4  A    between atoms: C_5  and  C_6
REMARK    5  A    between atoms: C_11  and  O_12
REMARK    6  A    between atoms: C_20  and  O_21
REMARK                            x       y       z     vdW  Elec       q    Type
REMARK                         _______ _______ _______ _____ _____    ______ ____
ROOT
ATOM      1  C   UNL     1      -1.383   3.290 -23.092  0.00  0.00    -0.001 A 
ATOM      2  C   UNL     1      -0.097   3.413 -23.238  0.00  0.00    +0.022 A 
ATOM      3  C   UNL     1       0.709   2.703 -22.505  0.00  0.00    +0.061 A 
ATOM      4  C   UNL     1       0.228   1.872 -21.627  0.00  0.00    +0.146 A 
ATOM      5  O   UNL     1       1.035   1.162 -20.893  0.00  0.00    -0.421 OA
ATOM      6  C   UNL     1       2.321   1.285 -21.040  0.00  0.00    +0.349 A 
ATOM      7  C   UNL     1       2.800   2.114 -21.916  0.00  0.00    +0.113 A 
ATOM      8  C   UNL     1       4.021   2.417 -22.251  0.00  0.00    +0.035 A 
ATOM      9  C   UNL     1       5.171   1.992 -21.821  0.00  0.00    +0.016 A 
ATOM     10  C   UNL     1       6.269   2.465 -22.331  0.00  0.00    +0.046 A 
ATOM     11  C   UNL     1       6.218   3.362 -23.271  0.00  0.00    +0.120 A 
ATOM     12  C   UNL     1       5.066   3.786 -23.700  0.00  0.00    +0.092 A 
ATOM     13  C   UNL     1       3.967   3.314 -23.190  0.00  0.00    +0.140 A 
ATOM     14  O   UNL     1       2.717   3.566 -23.437  0.00  0.00    -0.454 OA
ATOM     15  O   UNL     1       3.126   0.575 -20.306  0.00  0.00    -0.244 OA
ATOM     16  C   UNL     1      -1.058   1.751 -21.482  0.00  0.00    +0.092 A 
ATOM     17  C   UNL     1       1.997   2.825 -22.650  0.00  0.00    +0.154 A 
ATOM     18  C   UNL     1      -1.865   2.462 -22.217  0.00  0.00    +0.124 A 
ENDROOT
BRANCH  11  19
ATOM     19  O   UNL     1       7.315   3.833 -23.781  0.00  0.00    -0.507 OA
ATOM     20  H   UNL     1       7.585   3.566 -24.637  0.00  0.00    +0.292 HD
ENDBRANCH  11  19
BRANCH  18  21
ATOM     21  O   UNL     1      -3.150   2.340 -22.071  0.00  0.00    -0.506 OA
ATOM     22  H   UNL     1      -3.561   1.511 -22.221  0.00  0.00    +0.292 HD
ENDBRANCH  18  21
BRANCH   1  23
ATOM     23  C   UNL     1      -2.189   4.000 -23.826  0.00  0.00    +0.066 C 
BRANCH  23  26
ATOM     24  C   UNL     1      -3.479   3.510 -26.976  0.00  0.00    +0.038 C 
ATOM     25  C   UNL     1      -3.413   3.719 -25.696  0.00  0.00    -0.079 C 
ATOM     26  C   UNL     1      -2.256   3.791 -25.108  0.00  0.00    -0.023 C 
ATOM     27  C   UNL     1      -4.503   3.858 -25.002  0.00  0.00    +0.038 C 
ENDBRANCH  23  26
ENDBRANCH   1  23
TORSDOF 4
ENDMDL
MODEL 2
REMARK VINA RESULT:    -9.725      1.879      3.408
REMARK INTER + INTRA:         -12.024
REMARK INTER:                 -11.421
REMARK INTRA:                  -0.603
REMARK UNBOUND:                -0.593
REMARK  Name = ZINC000000899902
REMARK  6 active torsions:
REMARK  status: ('A' for Active; 'I' for Inactive)
REMARK    1  A    between atoms: C_1  and  C_2
REMARK    2  A    between atoms: C_2  and  C_3
REMARK    3  A    between atoms: C_4  and  C_5
REMARK    4  A    between atoms: C_5  and  C_6
REMARK    5  A    between atoms: C_11  and  O_12
REMARK    6  A    between atoms: C_20  and  O_21
REMARK                            x       y       z     vdW  Elec       q    Type
REMARK                         _______ _______ _______ _____ _____    ______ ____
ROOT
ATOM      1  C   UNL     1      -1.636   3.222 -23.304  0.00  0.00    -0.001 A 
ATOM      2  C   UNL     1      -0.585   2.629 -22.820  0.00  0.00    +0.022 A 
ATOM      3  C   UNL     1       0.586   3.182 -22.942  0.00  0.00    +0.061 A 
ATOM      4  C   UNL     1       0.704   4.328 -23.546  0.00  0.00    +0.146 A 
ATOM      5  O   UNL     1       1.875   4.881 -23.668  0.00  0.00    -0.421 OA
ATOM      6  C   UNL     1       2.925   4.287 -23.184  0.00  0.00    +0.349 A 
ATOM      7  C   UNL     1       2.806   3.144 -22.581  0.00  0.00    +0.113 A 
ATOM      8  C   UNL     1       3.682   2.360 -22.021  0.00  0.00    +0.035 A 
ATOM      9  C   UNL     1       4.970   2.458 -21.877  0.00  0.00    +0.016 A 
ATOM     10  C   UNL     1       5.628   1.518 -21.266  0.00  0.00    +0.046 A 
ATOM     11  C   UNL     1       4.999   0.481 -20.798  0.00  0.00    +0.120 A 
ATOM     12  C   UNL     1       3.711   0.384 -20.943  0.00  0.00    +0.092 A 
ATOM     13  C   UNL     1       3.051   1.324 -21.555  0.00  0.00    +0.140 A 
ATOM     14  O   UNL     1       1.788   1.465 -21.825  0.00  0.00    -0.454 OA
ATOM     15  O   UNL     1       4.095   4.841 -23.306  0.00  0.00    -0.244 OA
ATOM     16  C   UNL     1      -0.348   4.921 -24.029  0.00  0.00    +0.092 A 
ATOM     17  C   UNL     1       1.638   2.588 -22.458  0.00  0.00    +0.154 A 
ATOM     18  C   UNL     1      -1.520   4.366 -23.907  0.00  0.00    +0.124 A 
ENDROOT
BRANCH  11  19
ATOM     19  O   UNL     1       5.656  -0.458 -20.188  0.00  0.00    -0.507 OA
ATOM     20  H   UNL     1       6.273  -0.980 -20.661  0.00  0.00    +0.292 HD
ENDBRANCH  11  19
BRANCH  18  21
ATOM     21  O   UNL     1      -2.570   4.958 -24.390  0.00  0.00    -0.506 OA
ATOM     22  H   UNL     1      -3.424   4.719 -24.086  0.00  0.00    +0.292 HD
ENDBRANCH  18  21
BRANCH   1  23
ATOM     23  C   UNL     1      -2.807   2.668 -23.182  0.00  0.00    +0.066 C 
BRANCH  23  26
ATOM     24  C   UNL     1      -4.861   2.383 -20.438  0.00  0.00    +0.038 C 
ATOM     25  C   UNL     1      -4.422   2.722 -21.613  0.00  0.00    -0.079 C 
ATOM     26  C   UNL     1      -3.247   2.330 -22.006  0.00  0.00    -0.023 C 
ATOM     27  C   UNL     1      -5.158   3.452 -22.397  0.00  0.00    +0.038 C 
ENDBRANCH  23  26
ENDBRANCH   1  23
TORSDOF 4
ENDMDL
MODEL 3
REMARK VINA RESULT:    -9.394      2.013      7.868
REMARK INTER + INTRA:         -11.634
REMARK INTER:                 -11.582
REMARK INTRA:                  -0.052
REMARK UNBOUND:                -0.593
REMARK  Name = ZINC000000899902
REMARK  6 active torsions:
REMARK  status: ('A' for Active; 'I' for Inactive)
REMARK    1  A    between atoms: C_1  and  C_2
REMARK    2  A    between atoms: C_2  and  C_3
REMARK    3  A    between atoms: C_4  and  C_5
REMARK    4  A    between atoms: C_5  and  C_6
REMARK    5  A    between atoms: C_11  and  O_12
REMARK    6  A    between atoms: C_20  and  O_21
REMARK                            x       y       z     vdW  Elec       q    Type
REMARK                         _______ _______ _______ _____ _____    ______ ____
ROOT
ATOM      1  C   UNL     1       1.945   2.029 -22.977  0.00  0.00    -0.001 A 
ATOM      2  C   UNL     1       0.683   2.208 -22.723  0.00  0.00    +0.022 A 
ATOM      3  C   UNL     1      -0.110   2.647 -23.656  0.00  0.00    +0.061 A 
ATOM      4  C   UNL     1       0.360   2.904 -24.842  0.00  0.00    +0.146 A 
ATOM      5  O   UNL     1      -0.433   3.342 -25.775  0.00  0.00    -0.421 OA
ATOM      6  C   UNL     1      -1.695   3.521 -25.520  0.00  0.00    +0.349 A 
ATOM      7  C   UNL     1      -2.164   3.264 -24.338  0.00  0.00    +0.113 A 
ATOM      8  C   UNL     1      -3.362   3.357 -23.836  0.00  0.00    +0.035 A 
ATOM      9  C   UNL     1      -4.492   3.739 -24.352  0.00  0.00    +0.016 A 
ATOM     10  C   UNL     1      -5.569   3.740 -23.623  0.00  0.00    +0.046 A 
ATOM     11  C   UNL     1      -5.517   3.360 -22.381  0.00  0.00    +0.120 A 
ATOM     12  C   UNL     1      -4.385   2.978 -21.868  0.00  0.00    +0.092 A 
ATOM     13  C   UNL     1      -3.307   2.977 -22.595  0.00  0.00    +0.140 A 
ATOM     14  O   UNL     1      -2.079   2.649 -22.327  0.00  0.00    -0.454 OA
ATOM     15  O   UNL     1      -2.488   3.959 -26.453  0.00  0.00    -0.244 OA
ATOM     16  C   UNL     1       1.623   2.724 -25.094  0.00  0.00    +0.092 A 
ATOM     17  C   UNL     1      -1.374   2.827 -23.403  0.00  0.00    +0.154 A 
ATOM     18  C   UNL     1       2.417   2.286 -24.159  0.00  0.00    +0.124 A 
ENDROOT
BRANCH  11  19
ATOM     19  O   UNL     1      -6.593   3.361 -21.655  0.00  0.00    -0.507 OA
ATOM     20  H   UNL     1      -6.649   2.807 -20.901  0.00  0.00    +0.292 HD
ENDBRANCH  11  19
BRANCH  18  21
ATOM     21  O   UNL     1       3.678   2.106 -24.412  0.00  0.00    -0.506 OA
ATOM     22  H   UNL     1       4.316   2.688 -24.047  0.00  0.00    +0.292 HD
ENDBRANCH  18  21
BRANCH   1  23
ATOM     23  C   UNL     1       2.739   1.591 -22.043  0.00  0.00    +0.066 C 
BRANCH  23  26
ATOM     24  C   UNL     1       5.714   2.627 -20.664  0.00  0.00    +0.038 C 
ATOM     25  C   UNL     1       4.786   1.854 -21.144  0.00  0.00    -0.079 C 
ATOM     26  C   UNL     1       3.667   2.364 -21.564  0.00  0.00    -0.023 C 
ATOM     27  C   UNL     1       4.976   0.569 -21.203  0.00  0.00    +0.038 C 
ENDBRANCH  23  26
ENDBRANCH   1  23
TORSDOF 4
ENDMDL
MODEL 4
REMARK VINA RESULT:    -9.374      1.582      6.938
REMARK INTER + INTRA:         -11.610
REMARK INTER:                 -11.038
REMARK INTRA:                  -0.572
REMARK UNBOUND:                -0.593
REMARK  Name = ZINC000000899902
REMARK  6 active torsions:
REMARK  status: ('A' for Active; 'I' for Inactive)
REMARK    1  A    between atoms: C_1  and  C_2
REMARK    2  A    between atoms: C_2  and  C_3
REMARK    3  A    between atoms: C_4  and  C_5
REMARK    4  A    between atoms: C_5  and  C_6
REMARK    5  A    between atoms: C_11  and  O_12
REMARK    6  A    between atoms: C_20  and  O_21
REMARK                            x       y       z     vdW  Elec       q    Type
REMARK                         _______ _______ _______ _____ _____    ______ ____
ROOT
ATOM      1  C   UNL     1       2.804   1.859 -22.335  0.00  0.00    -0.001 A 
ATOM      2  C   UNL     1       1.812   2.223 -23.092  0.00  0.00    +0.022 A 
ATOM      3  C   UNL     1       0.599   2.206 -22.623  0.00  0.00    +0.061 A 
ATOM      4  C   UNL     1       0.380   1.827 -21.398  0.00  0.00    +0.146 A 
ATOM      5  O   UNL     1      -0.833   1.811 -20.929  0.00  0.00    -0.421 OA
ATOM      6  C   UNL     1      -1.825   2.174 -21.687  0.00  0.00    +0.349 A 
ATOM      7  C   UNL     1      -1.606   2.553 -22.908  0.00  0.00    +0.113 A 
ATOM      8  C   UNL     1      -2.408   2.957 -23.852  0.00  0.00    +0.035 A 
ATOM      9  C   UNL     1      -3.697   3.116 -23.888  0.00  0.00    +0.016 A 
ATOM     10  C   UNL     1      -4.268   3.541 -24.976  0.00  0.00    +0.046 A 
ATOM     11  C   UNL     1      -3.551   3.807 -26.027  0.00  0.00    +0.120 A 
ATOM     12  C   UNL     1      -2.262   3.646 -25.989  0.00  0.00    +0.092 A 
ATOM     13  C   UNL     1      -1.689   3.222 -24.902  0.00  0.00    +0.140 A 
ATOM     14  O   UNL     1      -0.445   2.983 -24.611  0.00  0.00    -0.454 OA
ATOM     15  O   UNL     1      -3.037   2.158 -21.217  0.00  0.00    -0.244 OA
ATOM     16  C   UNL     1       1.373   1.463 -20.642  0.00  0.00    +0.092 A 
ATOM     17  C   UNL     1      -0.395   2.570 -23.380  0.00  0.00    +0.154 A 
ATOM     18  C   UNL     1       2.588   1.480 -21.113  0.00  0.00    +0.124 A 
ENDROOT
BRANCH  11  19
ATOM     19  O   UNL     1      -4.122   4.231 -27.113  0.00  0.00    -0.507 OA
ATOM     20  H   UNL     1      -3.727   4.921 -27.610  0.00  0.00    +0.292 HD
ENDBRANCH  11  19
BRANCH  18  21
ATOM     21  O   UNL     1       3.580   1.116 -20.357  0.00  0.00    -0.506 OA
ATOM     22  H   UNL     1       3.619   1.403 -19.465  0.00  0.00    +0.292 HD
ENDBRANCH  18  21
BRANCH   1  23
ATOM     23  C   UNL     1       4.018   1.875 -22.805  0.00  0.00    +0.066 C 
BRANCH  23  26
ATOM     24  C   UNL     1       6.010   4.639 -23.274  0.00  0.00    +0.038 C 
ATOM     25  C   UNL     1       5.526   3.546 -22.763  0.00  0.00    -0.079 C 
ATOM     26  C   UNL     1       4.502   2.968 -23.316  0.00  0.00    -0.023 C 
ATOM     27  C   UNL     1       6.067   3.031 -21.699  0.00  0.00    +0.038 C 
ENDBRANCH  23  26
ENDBRANCH   1  23
TORSDOF 4
ENDMDL
MODEL 5
REMARK VINA RESULT:    -8.965      1.730      7.010
REMARK INTER + INTRA:         -11.130
REMARK INTER:                 -10.574
REMARK INTRA:                  -0.556
REMARK UNBOUND:                -0.593
REMARK  Name = ZINC000000899902
REMARK  6 active torsions:
REMARK  status: ('A' for Active; 'I' for Inactive)
REMARK    1  A    between atoms: C_1  and  C_2
REMARK    2  A    between atoms: C_2  and  C_3
REMARK    3  A    between atoms: C_4  and  C_5
REMARK    4  A    between atoms: C_5  and  C_6
REMARK    5  A    between atoms: C_11  and  O_12
REMARK    6  A    between atoms: C_20  and  O_21
REMARK                            x       y       z     vdW  Elec       q    Type
REMARK                         _______ _______ _______ _____ _____    ______ ____
ROOT
ATOM      1  C   UNL     1       4.535   2.941 -22.571  0.00  0.00    -0.001 A 
ATOM      2  C   UNL     1       3.397   3.123 -23.172  0.00  0.00    +0.022 A 
ATOM      3  C   UNL     1       2.315   2.585 -22.691  0.00  0.00    +0.061 A 
ATOM      4  C   UNL     1       2.374   1.865 -21.609  0.00  0.00    +0.146 A 
ATOM      5  O   UNL     1       1.292   1.326 -21.128  0.00  0.00    -0.421 OA
ATOM      6  C   UNL     1       0.154   1.509 -21.730  0.00  0.00    +0.349 A 
ATOM      7  C   UNL     1       0.097   2.227 -22.809  0.00  0.00    +0.113 A 
ATOM      8  C   UNL     1      -0.896   2.556 -23.584  0.00  0.00    +0.035 A 
ATOM      9  C   UNL     1      -2.164   2.275 -23.539  0.00  0.00    +0.016 A 
ATOM     10  C   UNL     1      -2.964   2.737 -24.454  0.00  0.00    +0.046 A 
ATOM     11  C   UNL     1      -2.496   3.478 -25.415  0.00  0.00    +0.120 A 
ATOM     12  C   UNL     1      -1.228   3.758 -25.458  0.00  0.00    +0.092 A 
ATOM     13  C   UNL     1      -0.427   3.297 -24.543  0.00  0.00    +0.140 A 
ATOM     14  O   UNL     1       0.854   3.428 -24.363  0.00  0.00    -0.454 OA
ATOM     15  O   UNL     1      -0.927   0.970 -21.248  0.00  0.00    -0.244 OA
ATOM     16  C   UNL     1       3.512   1.683 -21.008  0.00  0.00    +0.092 A 
ATOM     17  C   UNL     1       1.176   2.767 -23.293  0.00  0.00    +0.154 A 
ATOM     18  C   UNL     1       4.595   2.223 -21.491  0.00  0.00    +0.124 A 
ENDROOT
BRANCH  11  19
ATOM     19  O   UNL     1      -3.295   3.939 -26.329  0.00  0.00    -0.507 OA
ATOM     20  H   UNL     1      -3.477   4.857 -26.372  0.00  0.00    +0.292 HD
ENDBRANCH  11  19
BRANCH  18  21
ATOM     21  O   UNL     1       5.732   2.041 -20.891  0.00  0.00    -0.506 OA
ATOM     22  H   UNL     1       5.750   1.800 -19.985  0.00  0.00    +0.292 HD
ENDBRANCH  18  21
BRANCH   1  23
ATOM     23  C   UNL     1       5.617   3.480 -23.053  0.00  0.00    +0.066 C 
BRANCH  23  26
ATOM     24  C   UNL     1       7.192   6.497 -22.555  0.00  0.00    +0.038 C 
ATOM     25  C   UNL     1       6.998   5.217 -22.669  0.00  0.00    -0.079 C 
ATOM     26  C   UNL     1       5.811   4.760 -22.939  0.00  0.00    -0.023 C 
ATOM     27  C   UNL     1       7.990   4.392 -22.514  0.00  0.00    +0.038 C 
ENDBRANCH  23  26
ENDBRANCH   1  23
TORSDOF 4
ENDMDL
MODEL 6
REMARK VINA RESULT:    -7.328      4.293      7.653
REMARK INTER + INTRA:          -9.206
REMARK INTER:                  -8.625
REMARK INTRA:                  -0.582
REMARK UNBOUND:                -0.593
REMARK  Name = ZINC000000899902
REMARK  6 active torsions:
REMARK  status: ('A' for Active; 'I' for Inactive)
REMARK    1  A    between atoms: C_1  and  C_2
REMARK    2  A    between atoms: C_2  and  C_3
REMARK    3  A    between atoms: C_4  and  C_5
REMARK    4  A    between atoms: C_5  and  C_6
REMARK    5  A    between atoms: C_11  and  O_12
REMARK    6  A    between atoms: C_20  and  O_21
REMARK                            x       y       z     vdW  Elec       q    Type
REMARK                         _______ _______ _______ _____ _____    ______ ____
ROOT
ATOM      1  C   UNL     1       6.074   8.312 -21.227  0.00  0.00    -0.001 A 
ATOM      2  C   UNL     1       5.271   7.440 -21.759  0.00  0.00    +0.022 A 
ATOM      3  C   UNL     1       5.703   6.245 -22.040  0.00  0.00    +0.061 A 
ATOM      4  C   UNL     1       6.938   5.925 -21.787  0.00  0.00    +0.146 A 
ATOM      5  O   UNL     1       7.371   4.731 -22.067  0.00  0.00    -0.421 OA
ATOM      6  C   UNL     1       6.566   3.860 -22.599  0.00  0.00    +0.349 A 
ATOM      7  C   UNL     1       5.335   4.180 -22.851  0.00  0.00    +0.113 A 
ATOM      8  C   UNL     1       4.349   3.506 -23.370  0.00  0.00    +0.035 A 
ATOM      9  C   UNL     1       4.266   2.285 -23.810  0.00  0.00    +0.016 A 
ATOM     10  C   UNL     1       3.141   1.844 -24.290  0.00  0.00    +0.046 A 
ATOM     11  C   UNL     1       2.100   2.621 -24.331  0.00  0.00    +0.120 A 
ATOM     12  C   UNL     1       2.184   3.841 -23.890  0.00  0.00    +0.092 A 
ATOM     13  C   UNL     1       3.309   4.284 -23.410  0.00  0.00    +0.140 A 
ATOM     14  O   UNL     1       3.648   5.438 -22.917  0.00  0.00    -0.454 OA
ATOM     15  O   UNL     1       7.000   2.666 -22.879  0.00  0.00    -0.244 OA
ATOM     16  C   UNL     1       7.741   6.798 -21.254  0.00  0.00    +0.092 A 
ATOM     17  C   UNL     1       4.899   5.372 -22.573  0.00  0.00    +0.154 A 
ATOM     18  C   UNL     1       7.307   7.994 -20.974  0.00  0.00    +0.124 A 
ENDROOT
BRANCH  11  19
ATOM     19  O   UNL     1       0.977   2.179 -24.810  0.00  0.00    -0.507 OA
ATOM     20  H   UNL     1       0.952   1.359 -25.262  0.00  0.00    +0.292 HD
ENDBRANCH  11  19
BRANCH  18  21
ATOM     21  O   UNL     1       8.110   8.866 -20.441  0.00  0.00    -0.506 OA
ATOM     22  H   UNL     1       7.793   9.452 -19.782  0.00  0.00    +0.292 HD
ENDBRANCH  18  21
BRANCH   1  23
ATOM     23  C   UNL     1       5.641   9.506 -20.947  0.00  0.00    +0.066 C 
BRANCH  23  26
ATOM     24  C   UNL     1       3.368  11.675 -22.347  0.00  0.00    +0.038 C 
ATOM     25  C   UNL     1       4.037  11.002 -21.459  0.00  0.00    -0.079 C 
ATOM     26  C   UNL     1       4.970  10.179 -21.835  0.00  0.00    -0.023 C 
ATOM     27  C   UNL     1       3.775  11.153 -20.195  0.00  0.00    +0.038 C 
ENDBRANCH  23  26
ENDBRANCH   1  23
TORSDOF 4
ENDMDL
MODEL 7
REMARK VINA RESULT:    -6.916      1.858      7.269
REMARK INTER + INTRA:          -8.721
REMARK INTER:                  -8.512
REMARK INTRA:                  -0.209
REMARK UNBOUND:                -0.593
REMARK  Name = ZINC000000899902
REMARK  6 active torsions:
REMARK  status: ('A' for Active; 'I' for Inactive)
REMARK    1  A    between atoms: C_1  and  C_2
REMARK    2  A    between atoms: C_2  and  C_3
REMARK    3  A    between atoms: C_4  and  C_5
REMARK    4  A    between atoms: C_5  and  C_6
REMARK    5  A    between atoms: C_11  and  O_12
REMARK    6  A    between atoms: C_20  and  O_21
REMARK                            x       y       z     vdW  Elec       q    Type
REMARK                         _______ _______ _______ _____ _____    ______ ____
ROOT
ATOM      1  C   UNL     1       6.050   3.327 -23.222  0.00  0.00    -0.001 A 
ATOM      2  C   UNL     1       4.804   3.669 -23.358  0.00  0.00    +0.022 A 
ATOM      3  C   UNL     1       3.863   2.830 -23.041  0.00  0.00    +0.061 A 
ATOM      4  C   UNL     1       4.170   1.649 -22.588  0.00  0.00    +0.146 A 
ATOM      5  O   UNL     1       3.229   0.810 -22.270  0.00  0.00    -0.421 OA
ATOM      6  C   UNL     1       1.982   1.153 -22.406  0.00  0.00    +0.349 A 
ATOM      7  C   UNL     1       1.677   2.329 -22.858  0.00  0.00    +0.113 A 
ATOM      8  C   UNL     1       0.531   2.905 -23.083  0.00  0.00    +0.035 A 
ATOM      9  C   UNL     1      -0.693   2.495 -22.931  0.00  0.00    +0.016 A 
ATOM     10  C   UNL     1      -1.683   3.280 -23.236  0.00  0.00    +0.046 A 
ATOM     11  C   UNL     1      -1.451   4.475 -23.692  0.00  0.00    +0.120 A 
ATOM     12  C   UNL     1      -0.226   4.884 -23.843  0.00  0.00    +0.092 A 
ATOM     13  C   UNL     1       0.765   4.099 -23.539  0.00  0.00    +0.140 A 
ATOM     14  O   UNL     1       2.053   4.264 -23.597  0.00  0.00    -0.454 OA
ATOM     15  O   UNL     1       1.042   0.312 -22.089  0.00  0.00    -0.244 OA
ATOM     16  C   UNL     1       5.417   1.308 -22.452  0.00  0.00    +0.092 A 
ATOM     17  C   UNL     1       2.614   3.171 -23.176  0.00  0.00    +0.154 A 
ATOM     18  C   UNL     1       6.359   2.150 -22.771  0.00  0.00    +0.124 A 
ENDROOT
BRANCH  11  19
ATOM     19  O   UNL     1      -2.440   5.259 -23.996  0.00  0.00    -0.507 OA
ATOM     20  H   UNL     1      -3.031   5.022 -24.684  0.00  0.00    +0.292 HD
ENDBRANCH  11  19
BRANCH  18  21
ATOM     21  O   UNL     1       7.605   1.809 -22.635  0.00  0.00    -0.506 OA
ATOM     22  H   UNL     1       7.825   0.961 -22.301  0.00  0.00    +0.292 HD
ENDBRANCH  18  21
BRANCH   1  23
ATOM     23  C   UNL     1       6.992   4.168 -23.540  0.00  0.00    +0.066 C 
BRANCH  23  26
ATOM     24  C   UNL     1       9.008   4.873 -26.236  0.00  0.00    +0.038 C 
ATOM     25  C   UNL     1       8.374   5.004 -25.109  0.00  0.00    -0.079 C 
ATOM     26  C   UNL     1       7.626   4.037 -24.668  0.00  0.00    -0.023 C 
ATOM     27  C   UNL     1       8.489   6.101 -24.422  0.00  0.00    +0.038 C 
ENDBRANCH  23  26
ENDBRANCH   1  23
TORSDOF 4
ENDMDL
