MODEL 1
REMARK VINA RESULT:    -7.924      0.000      0.000
REMARK INTER + INTRA:          -9.407
REMARK INTER:                  -9.768
REMARK INTRA:                   0.361
REMARK UNBOUND:                -0.093
REMARK  Name = ZINC000000338392
REMARK  5 active torsions:
REMARK  status: ('A' for Active; 'I' for Inactive)
REMARK    1  A    between atoms: C_1  and  O_2
REMARK    2  A    between atoms: O_2  and  C_3
REMARK    3  A    between atoms: C_8  and  O_9
REMARK    4  A    between atoms: O_9  and  C_10
REMARK    5  A    between atoms: C_11  and  C_12
REMARK                            x       y       z     vdW  Elec       q    Type
REMARK                         _______ _______ _______ _____ _____    ______ ____
ROOT
ATOM      1  C   UNL     1       1.059   2.893 -24.554  0.00  0.00    +0.162 A 
ATOM      2  C   UNL     1       0.173   3.187 -25.458  0.00  0.00    +0.054 A 
ATOM      3  C   UNL     1      -1.067   3.380 -25.116  0.00  0.00    -0.024 A 
ATOM      4  C   UNL     1      -1.419   3.279 -23.868  0.00  0.00    +0.055 A 
ATOM      5  C   UNL     1      -2.658   3.472 -23.526  0.00  0.00    +0.228 C 
ATOM      6  N   UNL     1      -3.544   3.765 -24.430  0.00  0.00    -0.202 N 
ATOM      7  C   UNL     1      -3.191   3.866 -25.677  0.00  0.00    +0.369 C 
ATOM      8  O   UNL     1      -4.784   3.958 -24.088  0.00  0.00    -0.624 OA
ATOM      9  C   UNL     1      -0.532   2.986 -22.964  0.00  0.00    +0.064 A 
ATOM     10  C   UNL     1      -1.953   3.673 -26.020  0.00  0.00    +0.109 C 
ATOM     11  C   UNL     1       0.707   2.793 -23.306  0.00  0.00    +0.162 A 
ENDROOT
BRANCH   5  12
ATOM     12  C   UNL     1      -3.011   3.371 -22.278  0.00  0.00    +0.048 A 
ATOM     13  C   UNL     1      -2.611   4.258 -21.417  0.00  0.00    +0.014 A 
ATOM     14  C   UNL     1      -2.964   4.157 -20.168  0.00  0.00    +0.001 A 
ATOM     15  C   UNL     1      -3.716   3.170 -19.784  0.00  0.00    +0.000 A 
ATOM     16  C   UNL     1      -4.115   2.283 -20.646  0.00  0.00    +0.001 A 
ATOM     17  C   UNL     1      -3.763   2.384 -21.893  0.00  0.00    +0.014 A 
ENDBRANCH   5  12
BRANCH   1  19
ATOM     18  C   UNL     1       2.733   1.495 -25.110  0.00  0.00    +0.277 C 
ATOM     19  O   UNL     1       2.298   2.701 -24.896  0.00  0.00    -0.491 OA
ENDBRANCH   1  19
BRANCH  11  20
ATOM     20  O   UNL     1       1.593   2.499 -22.402  0.00  0.00    -0.491 OA
ATOM     21  C   UNL     1       1.383   1.511 -21.583  0.00  0.00    +0.277 C 
ENDBRANCH  11  20
TORSDOF 3
ENDMDL
MODEL 2
REMARK VINA RESULT:    -7.567      1.941      5.034
REMARK INTER + INTRA:          -8.987
REMARK INTER:                  -8.976
REMARK INTRA:                  -0.011
REMARK UNBOUND:                -0.093
REMARK  Name = ZINC000000338392
REMARK  5 active torsions:
REMARK  status: ('A' for Active; 'I' for Inactive)
REMARK    1  A    between atoms: C_1  and  O_2
REMARK    2  A    between atoms: O_2  and  C_3
REMARK    3  A    between atoms: C_8  and  O_9
REMARK    4  A    between atoms: O_9  and  C_10
REMARK    5  A    between atoms: C_11  and  C_12
REMARK                            x       y       z     vdW  Elec       q    Type
REMARK                         _______ _______ _______ _____ _____    ______ ____
ROOT
ATOM      1  C   UNL     1      -5.103   3.431 -22.371  0.00  0.00    +0.162 A 
ATOM      2  C   UNL     1      -5.174   3.552 -23.663  0.00  0.00    +0.054 A 
ATOM      3  C   UNL     1      -4.086   3.578 -24.375  0.00  0.00    -0.024 A 
ATOM      4  C   UNL     1      -2.927   3.483 -23.794  0.00  0.00    +0.055 A 
ATOM      5  C   UNL     1      -1.840   3.509 -24.506  0.00  0.00    +0.228 C 
ATOM      6  N   UNL     1      -1.912   3.631 -25.798  0.00  0.00    -0.202 N 
ATOM      7  C   UNL     1      -3.071   3.726 -26.379  0.00  0.00    +0.369 C 
ATOM      8  O   UNL     1      -0.824   3.657 -26.510  0.00  0.00    -0.624 OA
ATOM      9  C   UNL     1      -2.856   3.362 -22.501  0.00  0.00    +0.064 A 
ATOM     10  C   UNL     1      -4.158   3.699 -25.667  0.00  0.00    +0.109 C 
ATOM     11  C   UNL     1      -3.943   3.336 -21.790  0.00  0.00    +0.162 A 
ENDROOT
BRANCH   5  12
ATOM     12  C   UNL     1      -0.681   3.414 -23.925  0.00  0.00    +0.048 A 
ATOM     13  C   UNL     1       0.040   4.479 -23.735  0.00  0.00    +0.014 A 
ATOM     14  C   UNL     1       1.200   4.384 -23.153  0.00  0.00    +0.001 A 
ATOM     15  C   UNL     1       1.638   3.225 -22.763  0.00  0.00    +0.000 A 
ATOM     16  C   UNL     1       0.917   2.160 -22.954  0.00  0.00    +0.001 A 
ATOM     17  C   UNL     1      -0.242   2.255 -23.535  0.00  0.00    +0.014 A 
ENDBRANCH   5  12
BRANCH   1  19
ATOM     18  C   UNL     1      -6.983   2.376 -21.722  0.00  0.00    +0.277 C 
ATOM     19  O   UNL     1      -6.190   3.404 -21.660  0.00  0.00    -0.491 OA
ENDBRANCH   1  19
BRANCH  11  20
ATOM     20  O   UNL     1      -3.872   3.214 -20.498  0.00  0.00    -0.491 OA
ATOM     21  C   UNL     1      -2.996   3.904 -19.828  0.00  0.00    +0.277 C 
ENDBRANCH  11  20
TORSDOF 3
ENDMDL
MODEL 3
REMARK VINA RESULT:    -7.480      1.400      3.768
REMARK INTER + INTRA:          -8.885
REMARK INTER:                  -8.900
REMARK INTRA:                   0.015
REMARK UNBOUND:                -0.093
REMARK  Name = ZINC000000338392
REMARK  5 active torsions:
REMARK  status: ('A' for Active; 'I' for Inactive)
REMARK    1  A    between atoms: C_1  and  O_2
REMARK    2  A    between atoms: O_2  and  C_3
REMARK    3  A    between atoms: C_8  and  O_9
REMARK    4  A    between atoms: O_9  and  C_10
REMARK    5  A    between atoms: C_11  and  C_12
REMARK                            x       y       z     vdW  Elec       q    Type
REMARK                         _______ _______ _______ _____ _____    ______ ____
ROOT
ATOM      1  C   UNL     1       0.671   1.865 -22.230  0.00  0.00    +0.162 A 
ATOM      2  C   UNL     1      -0.213   1.935 -21.280  0.00  0.00    +0.054 A 
ATOM      3  C   UNL     1      -1.425   2.324 -21.547  0.00  0.00    -0.024 A 
ATOM      4  C   UNL     1      -1.752   2.641 -22.764  0.00  0.00    +0.055 A 
ATOM      5  C   UNL     1      -2.964   3.029 -23.031  0.00  0.00    +0.228 C 
ATOM      6  N   UNL     1      -3.848   3.100 -22.081  0.00  0.00    -0.202 N 
ATOM      7  C   UNL     1      -3.520   2.782 -20.864  0.00  0.00    +0.369 C 
ATOM      8  O   UNL     1      -5.060   3.488 -22.348  0.00  0.00    -0.624 OA
ATOM      9  C   UNL     1      -0.867   2.571 -23.715  0.00  0.00    +0.064 A 
ATOM     10  C   UNL     1      -2.309   2.394 -20.597  0.00  0.00    +0.109 C 
ATOM     11  C   UNL     1       0.344   2.183 -23.448  0.00  0.00    +0.162 A 
ENDROOT
BRANCH   5  12
ATOM     12  C   UNL     1      -3.291   3.347 -24.249  0.00  0.00    +0.048 A 
ATOM     13  C   UNL     1      -3.417   4.597 -24.582  0.00  0.00    +0.014 A 
ATOM     14  C   UNL     1      -3.745   4.915 -25.801  0.00  0.00    +0.001 A 
ATOM     15  C   UNL     1      -3.946   3.983 -26.683  0.00  0.00    +0.000 A 
ATOM     16  C   UNL     1      -3.819   2.733 -26.350  0.00  0.00    +0.001 A 
ATOM     17  C   UNL     1      -3.492   2.415 -25.132  0.00  0.00    +0.014 A 
ENDBRANCH   5  12
BRANCH   1  19
ATOM     18  C   UNL     1       2.310   1.480 -20.736  0.00  0.00    +0.277 C 
ATOM     19  O   UNL     1       1.882   1.477 -21.963  0.00  0.00    -0.491 OA
ENDBRANCH   1  19
BRANCH  11  20
ATOM     20  O   UNL     1       1.228   2.112 -24.398  0.00  0.00    -0.491 OA
ATOM     21  C   UNL     1       1.218   2.986 -25.361  0.00  0.00    +0.277 C 
ENDBRANCH  11  20
TORSDOF 3
ENDMDL
MODEL 4
REMARK VINA RESULT:    -6.879      1.908      5.838
REMARK INTER + INTRA:          -8.178
REMARK INTER:                  -8.145
REMARK INTRA:                  -0.033
REMARK UNBOUND:                -0.093
REMARK  Name = ZINC000000338392
REMARK  5 active torsions:
REMARK  status: ('A' for Active; 'I' for Inactive)
REMARK    1  A    between atoms: C_1  and  O_2
REMARK    2  A    between atoms: O_2  and  C_3
REMARK    3  A    between atoms: C_8  and  O_9
REMARK    4  A    between atoms: O_9  and  C_10
REMARK    5  A    between atoms: C_11  and  C_12
REMARK                            x       y       z     vdW  Elec       q    Type
REMARK                         _______ _______ _______ _____ _____    ______ ____
ROOT
ATOM      1  C   UNL     1      -4.353   3.274 -22.502  0.00  0.00    +0.162 A 
ATOM      2  C   UNL     1      -3.773   2.475 -21.656  0.00  0.00    +0.054 A 
ATOM      3  C   UNL     1      -2.490   2.275 -21.725  0.00  0.00    -0.024 A 
ATOM      4  C   UNL     1      -1.787   2.874 -22.640  0.00  0.00    +0.055 A 
ATOM      5  C   UNL     1      -0.505   2.674 -22.709  0.00  0.00    +0.228 C 
ATOM      6  N   UNL     1       0.075   1.875 -21.864  0.00  0.00    -0.202 N 
ATOM      7  C   UNL     1      -0.628   1.276 -20.949  0.00  0.00    +0.369 C 
ATOM      8  O   UNL     1       1.358   1.675 -21.932  0.00  0.00    -0.624 OA
ATOM      9  C   UNL     1      -2.367   3.673 -23.486  0.00  0.00    +0.064 A 
ATOM     10  C   UNL     1      -1.911   1.476 -20.879  0.00  0.00    +0.109 C 
ATOM     11  C   UNL     1      -3.650   3.873 -23.417  0.00  0.00    +0.162 A 
ENDROOT
BRANCH   5  12
ATOM     12  C   UNL     1       0.198   3.273 -23.624  0.00  0.00    +0.048 A 
ATOM     13  C   UNL     1       0.901   4.323 -23.321  0.00  0.00    +0.014 A 
ATOM     14  C   UNL     1       1.604   4.922 -24.236  0.00  0.00    +0.001 A 
ATOM     15  C   UNL     1       1.604   4.471 -25.455  0.00  0.00    +0.000 A 
ATOM     16  C   UNL     1       0.901   3.420 -25.758  0.00  0.00    +0.001 A 
ATOM     17  C   UNL     1       0.198   2.822 -24.843  0.00  0.00    +0.014 A 
ENDBRANCH   5  12
BRANCH   1  19
ATOM     18  C   UNL     1      -6.382   2.667 -21.740  0.00  0.00    +0.277 C 
ATOM     19  O   UNL     1      -5.635   3.474 -22.433  0.00  0.00    -0.491 OA
ENDBRANCH   1  19
BRANCH  11  20
ATOM     20  O   UNL     1      -4.229   4.672 -24.263  0.00  0.00    -0.491 OA
ATOM     21  C   UNL     1      -4.054   4.504 -25.541  0.00  0.00    +0.277 C 
ENDBRANCH  11  20
TORSDOF 3
ENDMDL
MODEL 5
REMARK VINA RESULT:    -6.590      4.104      6.572
REMARK INTER + INTRA:          -7.839
REMARK INTER:                  -7.888
REMARK INTRA:                   0.049
REMARK UNBOUND:                -0.093
REMARK  Name = ZINC000000338392
REMARK  5 active torsions:
REMARK  status: ('A' for Active; 'I' for Inactive)
REMARK    1  A    between atoms: C_1  and  O_2
REMARK    2  A    between atoms: O_2  and  C_3
REMARK    3  A    between atoms: C_8  and  O_9
REMARK    4  A    between atoms: O_9  and  C_10
REMARK    5  A    between atoms: C_11  and  C_12
REMARK                            x       y       z     vdW  Elec       q    Type
REMARK                         _______ _______ _______ _____ _____    ______ ____
ROOT
ATOM      1  C   UNL     1       6.385   3.790 -21.730  0.00  0.00    +0.162 A 
ATOM      2  C   UNL     1       6.045   2.619 -21.281  0.00  0.00    +0.054 A 
ATOM      3  C   UNL     1       4.898   2.103 -21.613  0.00  0.00    -0.024 A 
ATOM      4  C   UNL     1       4.092   2.759 -22.393  0.00  0.00    +0.055 A 
ATOM      5  C   UNL     1       2.946   2.243 -22.724  0.00  0.00    +0.228 C 
ATOM      6  N   UNL     1       2.606   1.072 -22.275  0.00  0.00    -0.202 N 
ATOM      7  C   UNL     1       3.413   0.416 -21.495  0.00  0.00    +0.369 C 
ATOM      8  O   UNL     1       1.459   0.556 -22.607  0.00  0.00    -0.624 OA
ATOM      9  C   UNL     1       4.432   3.931 -22.842  0.00  0.00    +0.064 A 
ATOM     10  C   UNL     1       4.559   0.931 -21.164  0.00  0.00    +0.109 C 
ATOM     11  C   UNL     1       5.578   4.446 -22.510  0.00  0.00    +0.162 A 
ENDROOT
BRANCH   5  12
ATOM     12  C   UNL     1       2.139   2.900 -23.504  0.00  0.00    +0.048 A 
ATOM     13  C   UNL     1       2.149   2.677 -24.785  0.00  0.00    +0.014 A 
ATOM     14  C   UNL     1       1.342   3.333 -25.566  0.00  0.00    +0.001 A 
ATOM     15  C   UNL     1       0.526   4.212 -25.065  0.00  0.00    +0.000 A 
ATOM     16  C   UNL     1       0.516   4.435 -23.785  0.00  0.00    +0.001 A 
ATOM     17  C   UNL     1       1.323   3.779 -23.004  0.00  0.00    +0.014 A 
ENDBRANCH   5  12
BRANCH   1  19
ATOM     18  C   UNL     1       7.701   4.801 -20.209  0.00  0.00    +0.277 C 
ATOM     19  O   UNL     1       7.531   4.305 -21.399  0.00  0.00    -0.491 OA
ENDBRANCH   1  19
BRANCH  11  20
ATOM     20  O   UNL     1       5.918   5.618 -22.959  0.00  0.00    -0.491 OA
ATOM     21  C   UNL     1       5.509   6.692 -22.350  0.00  0.00    +0.277 C 
ENDBRANCH  11  20
TORSDOF 3
ENDMDL
MODEL 6
REMARK VINA RESULT:    -6.431      3.093      6.047
REMARK INTER + INTRA:          -7.652
REMARK INTER:                  -8.155
REMARK INTRA:                   0.504
REMARK UNBOUND:                -0.093
REMARK  Name = ZINC000000338392
REMARK  5 active torsions:
REMARK  status: ('A' for Active; 'I' for Inactive)
REMARK    1  A    between atoms: C_1  and  O_2
REMARK    2  A    between atoms: O_2  and  C_3
REMARK    3  A    between atoms: C_8  and  O_9
REMARK    4  A    between atoms: O_9  and  C_10
REMARK    5  A    between atoms: C_11  and  C_12
REMARK                            x       y       z     vdW  Elec       q    Type
REMARK                         _______ _______ _______ _____ _____    ______ ____
ROOT
ATOM      1  C   UNL     1      -0.522   3.563 -23.598  0.00  0.00    +0.162 A 
ATOM      2  C   UNL     1       0.225   4.619 -23.726  0.00  0.00    +0.054 A 
ATOM      3  C   UNL     1       1.475   4.580 -23.370  0.00  0.00    -0.024 A 
ATOM      4  C   UNL     1       1.977   3.483 -22.885  0.00  0.00    +0.055 A 
ATOM      5  C   UNL     1       3.227   3.443 -22.529  0.00  0.00    +0.228 C 
ATOM      6  N   UNL     1       3.973   4.500 -22.657  0.00  0.00    -0.202 N 
ATOM      7  C   UNL     1       3.470   5.596 -23.142  0.00  0.00    +0.369 C 
ATOM      8  O   UNL     1       5.223   4.460 -22.301  0.00  0.00    -0.624 OA
ATOM      9  C   UNL     1       1.230   2.427 -22.757  0.00  0.00    +0.064 A 
ATOM     10  C   UNL     1       2.221   5.636 -23.498  0.00  0.00    +0.109 C 
ATOM     11  C   UNL     1      -0.019   2.467 -23.113  0.00  0.00    +0.162 A 
ENDROOT
BRANCH   5  12
ATOM     12  C   UNL     1       3.729   2.347 -22.044  0.00  0.00    +0.048 A 
ATOM     13  C   UNL     1       3.235   1.829 -20.959  0.00  0.00    +0.014 A 
ATOM     14  C   UNL     1       3.738   0.732 -20.474  0.00  0.00    +0.001 A 
ATOM     15  C   UNL     1       4.735   0.154 -21.074  0.00  0.00    +0.000 A 
ATOM     16  C   UNL     1       5.229   0.672 -22.159  0.00  0.00    +0.001 A 
ATOM     17  C   UNL     1       4.727   1.768 -22.644  0.00  0.00    +0.014 A 
ENDBRANCH   5  12
BRANCH   1  19
ATOM     18  C   UNL     1      -2.086   3.646 -25.215  0.00  0.00    +0.277 C 
ATOM     19  O   UNL     1      -1.771   3.603 -23.954  0.00  0.00    -0.491 OA
ENDBRANCH   1  19
BRANCH  11  20
ATOM     20  O   UNL     1      -0.765   1.410 -22.985  0.00  0.00    -0.491 OA
ATOM     21  C   UNL     1      -1.092   0.985 -21.800  0.00  0.00    +0.277 C 
ENDBRANCH  11  20
TORSDOF 3
ENDMDL
MODEL 7
REMARK VINA RESULT:    -5.495      3.165      4.540
REMARK INTER + INTRA:          -6.551
REMARK INTER:                  -7.334
REMARK INTRA:                   0.783
REMARK UNBOUND:                -0.093
REMARK  Name = ZINC000000338392
REMARK  5 active torsions:
REMARK  status: ('A' for Active; 'I' for Inactive)
REMARK    1  A    between atoms: C_1  and  O_2
REMARK    2  A    between atoms: O_2  and  C_3
REMARK    3  A    between atoms: C_8  and  O_9
REMARK    4  A    between atoms: O_9  and  C_10
REMARK    5  A    between atoms: C_11  and  C_12
REMARK                            x       y       z     vdW  Elec       q    Type
REMARK                         _______ _______ _______ _____ _____    ______ ____
ROOT
ATOM      1  C   UNL     1       5.228   2.769 -22.581  0.00  0.00    +0.162 A 
ATOM      2  C   UNL     1       4.906   3.994 -22.873  0.00  0.00    +0.054 A 
ATOM      3  C   UNL     1       3.654   4.334 -22.961  0.00  0.00    -0.024 A 
ATOM      4  C   UNL     1       2.724   3.448 -22.757  0.00  0.00    +0.055 A 
ATOM      5  C   UNL     1       1.473   3.788 -22.845  0.00  0.00    +0.228 C 
ATOM      6  N   UNL     1       1.151   5.013 -23.137  0.00  0.00    -0.202 N 
ATOM      7  C   UNL     1       2.080   5.898 -23.341  0.00  0.00    +0.369 C 
ATOM      8  O   UNL     1      -0.101   5.353 -23.225  0.00  0.00    -0.624 OA
ATOM      9  C   UNL     1       3.047   2.223 -22.465  0.00  0.00    +0.064 A 
ATOM     10  C   UNL     1       3.332   5.559 -23.253  0.00  0.00    +0.109 C 
ATOM     11  C   UNL     1       4.298   1.883 -22.377  0.00  0.00    +0.162 A 
ENDROOT
BRANCH   5  12
ATOM     12  C   UNL     1       0.543   2.902 -22.641  0.00  0.00    +0.048 A 
ATOM     13  C   UNL     1       0.546   2.196 -21.550  0.00  0.00    +0.014 A 
ATOM     14  C   UNL     1      -0.384   1.310 -21.346  0.00  0.00    +0.001 A 
ATOM     15  C   UNL     1      -1.316   1.131 -22.234  0.00  0.00    +0.000 A 
ATOM     16  C   UNL     1      -1.319   1.837 -23.325  0.00  0.00    +0.001 A 
ATOM     17  C   UNL     1      -0.390   2.723 -23.529  0.00  0.00    +0.014 A 
ENDBRANCH   5  12
BRANCH   1  19
ATOM     18  C   UNL     1       7.367   3.020 -23.237  0.00  0.00    +0.277 C 
ATOM     19  O   UNL     1       6.479   2.429 -22.493  0.00  0.00    -0.491 OA
ENDBRANCH   1  19
BRANCH  11  20
ATOM     20  O   UNL     1       4.620   0.658 -22.085  0.00  0.00    -0.491 OA
ATOM     21  C   UNL     1       4.416   0.200 -20.885  0.00  0.00    +0.277 C 
ENDBRANCH  11  20
TORSDOF 3
ENDMDL
MODEL 8
REMARK VINA RESULT:    -5.180      6.594      8.778
REMARK INTER + INTRA:          -6.182
REMARK INTER:                  -6.089
REMARK INTRA:                  -0.093
REMARK UNBOUND:                -0.093
REMARK  Name = ZINC000000338392
REMARK  5 active torsions:
REMARK  status: ('A' for Active; 'I' for Inactive)
REMARK    1  A    between atoms: C_1  and  O_2
REMARK    2  A    between atoms: O_2  and  C_3
REMARK    3  A    between atoms: C_8  and  O_9
REMARK    4  A    between atoms: O_9  and  C_10
REMARK    5  A    between atoms: C_11  and  C_12
REMARK                            x       y       z     vdW  Elec       q    Type
REMARK                         _______ _______ _______ _____ _____    ______ ____
ROOT
ATOM      1  C   UNL     1       5.000   3.475 -23.232  0.00  0.00    +0.162 A 
ATOM      2  C   UNL     1       6.207   3.465 -22.752  0.00  0.00    +0.054 A 
ATOM      3  C   UNL     1       6.687   4.527 -22.174  0.00  0.00    -0.024 A 
ATOM      4  C   UNL     1       5.958   5.599 -22.078  0.00  0.00    +0.055 A 
ATOM      5  C   UNL     1       6.436   6.660 -21.501  0.00  0.00    +0.228 C 
ATOM      6  N   UNL     1       7.644   6.650 -21.020  0.00  0.00    -0.202 N 
ATOM      7  C   UNL     1       8.373   5.578 -21.116  0.00  0.00    +0.369 C 
ATOM      8  O   UNL     1       8.123   7.712 -20.443  0.00  0.00    -0.624 OA
ATOM      9  C   UNL     1       4.749   5.609 -22.559  0.00  0.00    +0.064 A 
ATOM     10  C   UNL     1       7.894   4.516 -21.693  0.00  0.00    +0.109 C 
ATOM     11  C   UNL     1       4.271   4.547 -23.136  0.00  0.00    +0.162 A 
ENDROOT
BRANCH   5  12
ATOM     12  C   UNL     1       5.707   7.732 -21.404  0.00  0.00    +0.048 A 
ATOM     13  C   UNL     1       4.908   7.886 -20.391  0.00  0.00    +0.014 A 
ATOM     14  C   UNL     1       4.178   8.959 -20.295  0.00  0.00    +0.001 A 
ATOM     15  C   UNL     1       4.249   9.876 -21.211  0.00  0.00    +0.000 A 
ATOM     16  C   UNL     1       5.048   9.723 -22.225  0.00  0.00    +0.001 A 
ATOM     17  C   UNL     1       5.777   8.651 -22.321  0.00  0.00    +0.014 A 
ENDBRANCH   5  12
BRANCH   1  19
ATOM     18  C   UNL     1       4.238   1.361 -23.101  0.00  0.00    +0.277 C 
ATOM     19  O   UNL     1       4.521   2.413 -23.809  0.00  0.00    -0.491 OA
ENDBRANCH   1  19
BRANCH  11  20
ATOM     20  O   UNL     1       3.063   4.557 -23.617  0.00  0.00    -0.491 OA
ATOM     21  C   UNL     1       2.227   5.484 -23.254  0.00  0.00    +0.277 C 
ENDBRANCH  11  20
TORSDOF 3
ENDMDL
