MODEL 1
REMARK VINA RESULT:    -8.839      0.000      0.000
REMARK INTER + INTRA:         -11.277
REMARK INTER:                 -11.161
REMARK INTRA:                  -0.116
REMARK UNBOUND:                -0.113
REMARK  Name = ZINC000004046820
REMARK  8 active torsions:
REMARK  status: ('A' for Active; 'I' for Inactive)
REMARK    1  A    between atoms: C_1  and  O_2
REMARK    2  A    between atoms: O_2  and  C_3
REMARK    3  A    between atoms: C_4  and  O_5
REMARK    4  A    between atoms: C_9  and  O_10
REMARK    5  A    between atoms: C_13  and  C_14
REMARK    6  A    between atoms: C_14  and  O_15
REMARK    7  A    between atoms: C_16  and  O_17
REMARK    8  A    between atoms: C_18  and  O_19
REMARK                            x       y       z     vdW  Elec       q    Type
REMARK                         _______ _______ _______ _____ _____    ______ ____
ROOT
ATOM      1  C   UNL     1      -2.742   3.749 -25.171  0.00  0.00    +0.203 A 
ATOM      2  C   UNL     1      -3.679   3.910 -24.285  0.00  0.00    +0.163 A 
ATOM      3  C   UNL     1      -3.470   3.569 -23.049  0.00  0.00    +0.064 A 
ATOM      4  C   UNL     1      -2.324   3.066 -22.698  0.00  0.00    +0.072 A 
ATOM      5  C   UNL     1      -1.386   2.905 -23.584  0.00  0.00    +0.044 A 
ATOM      6  C   UNL     1      -0.240   2.402 -23.233  0.00  0.00    +0.196 C 
ATOM      7  O   UNL     1       0.697   2.241 -24.119  0.00  0.00    -0.360 OA
ATOM      8  C   UNL     1       1.844   1.738 -23.769  0.00  0.00    +0.175 C 
ATOM      9  C   UNL     1       2.053   1.396 -22.533  0.00  0.00    +0.178 C 
ATOM     10  C   UNL     1       1.116   1.557 -21.647  0.00  0.00    +0.189 C 
ATOM     11  C   UNL     1      -0.031   2.060 -21.997  0.00  0.00    +0.241 C 
ATOM     12  O   UNL     1      -0.969   2.221 -21.110  0.00  0.00    -0.452 OA
ATOM     13  C   UNL     1      -2.115   2.724 -21.461  0.00  0.00    +0.340 C 
ATOM     14  O   UNL     1      -3.052   2.885 -20.575  0.00  0.00    -0.245 OA
ATOM     15  C   UNL     1      -1.596   3.246 -24.820  0.00  0.00    +0.169 A 
ENDROOT
BRANCH   1  17
ATOM     16  C   UNL     1      -3.543   3.265 -27.219  0.00  0.00    +0.277 C 
ATOM     17  O   UNL     1      -2.951   4.091 -26.408  0.00  0.00    -0.489 OA
ENDBRANCH   1  17
BRANCH  10  18
ATOM     18  O   UNL     1       1.324   1.216 -20.409  0.00  0.00    -0.385 OA
ATOM     19  H   UNL     1       2.237   1.435 -20.163  0.00  0.00    +0.210 HD
ENDBRANCH  10  18
BRANCH   9  20
ATOM     20  O   UNL     1       3.199   0.893 -22.182  0.00  0.00    -0.386 OA
ATOM     21  H   UNL     1       3.067  -0.001 -21.832  0.00  0.00    +0.210 HD
ENDBRANCH   9  20
BRANCH  15  22
ATOM     22  O   UNL     1      -0.658   3.085 -25.707  0.00  0.00    -0.503 OA
ATOM     23  H   UNL     1       0.241   3.067 -25.441  0.00  0.00    +0.292 HD
ENDBRANCH  15  22
BRANCH   2  24
ATOM     24  O   UNL     1      -4.826   4.413 -24.635  0.00  0.00    -0.503 OA
ATOM     25  H   UNL     1      -4.860   5.240 -25.075  0.00  0.00    +0.292 HD
ENDBRANCH   2  24
BRANCH   8  26
ATOM     26  C   UNL     1       2.781   1.577 -24.655  0.00  0.00    +0.190 C 
BRANCH  26  27
ATOM     27  O   UNL     1       3.055   0.387 -25.103  0.00  0.00    -0.392 OA
ATOM     28  H   UNL     1       4.004   0.322 -25.289  0.00  0.00    +0.210 HD
ENDBRANCH  26  27
ENDBRANCH   8  26
TORSDOF 7
ENDMDL
MODEL 2
REMARK VINA RESULT:    -8.619      1.281      5.427
REMARK INTER + INTRA:         -11.000
REMARK INTER:                 -10.926
REMARK INTRA:                  -0.074
REMARK UNBOUND:                -0.113
REMARK  Name = ZINC000004046820
REMARK  8 active torsions:
REMARK  status: ('A' for Active; 'I' for Inactive)
REMARK    1  A    between atoms: C_1  and  O_2
REMARK    2  A    between atoms: O_2  and  C_3
REMARK    3  A    between atoms: C_4  and  O_5
REMARK    4  A    between atoms: C_9  and  O_10
REMARK    5  A    between atoms: C_13  and  C_14
REMARK    6  A    between atoms: C_14  and  O_15
REMARK    7  A    between atoms: C_16  and  O_17
REMARK    8  A    between atoms: C_18  and  O_19
REMARK                            x       y       z     vdW  Elec       q    Type
REMARK                         _______ _______ _______ _____ _____    ______ ____
ROOT
ATOM      1  C   UNL     1       0.568   1.825 -22.698  0.00  0.00    +0.203 A 
ATOM      2  C   UNL     1       0.356   1.715 -21.420  0.00  0.00    +0.163 A 
ATOM      3  C   UNL     1      -0.796   2.051 -20.921  0.00  0.00    +0.064 A 
ATOM      4  C   UNL     1      -1.736   2.498 -21.700  0.00  0.00    +0.072 A 
ATOM      5  C   UNL     1      -1.524   2.609 -22.978  0.00  0.00    +0.044 A 
ATOM      6  C   UNL     1      -2.464   3.055 -23.757  0.00  0.00    +0.196 C 
ATOM      7  O   UNL     1      -2.252   3.166 -25.034  0.00  0.00    -0.360 OA
ATOM      8  C   UNL     1      -3.192   3.613 -25.813  0.00  0.00    +0.175 C 
ATOM      9  C   UNL     1      -4.344   3.949 -25.315  0.00  0.00    +0.178 C 
ATOM     10  C   UNL     1      -4.556   3.839 -24.037  0.00  0.00    +0.189 C 
ATOM     11  C   UNL     1      -3.616   3.392 -23.258  0.00  0.00    +0.241 C 
ATOM     12  O   UNL     1      -3.828   3.282 -21.980  0.00  0.00    -0.452 OA
ATOM     13  C   UNL     1      -2.888   2.835 -21.201  0.00  0.00    +0.340 C 
ATOM     14  O   UNL     1      -3.100   2.724 -19.923  0.00  0.00    -0.245 OA
ATOM     15  C   UNL     1      -0.372   2.272 -23.477  0.00  0.00    +0.169 A 
ENDROOT
BRANCH   1  17
ATOM     16  C   UNL     1       2.669   2.373 -23.298  0.00  0.00    +0.277 C 
ATOM     17  O   UNL     1       1.721   1.489 -23.197  0.00  0.00    -0.489 OA
ENDBRANCH   1  17
BRANCH  10  18
ATOM     18  O   UNL     1      -5.708   4.175 -23.538  0.00  0.00    -0.385 OA
ATOM     19  H   UNL     1      -6.340   4.329 -24.258  0.00  0.00    +0.210 HD
ENDBRANCH  10  18
BRANCH   9  20
ATOM     20  O   UNL     1      -5.284   4.396 -26.094  0.00  0.00    -0.386 OA
ATOM     21  H   UNL     1      -5.066   4.188 -27.015  0.00  0.00    +0.210 HD
ENDBRANCH   9  20
BRANCH  15  22
ATOM     22  O   UNL     1      -0.159   2.382 -24.755  0.00  0.00    -0.503 OA
ATOM     23  H   UNL     1      -0.308   1.650 -25.320  0.00  0.00    +0.292 HD
ENDBRANCH  15  22
BRANCH   2  24
ATOM     24  O   UNL     1       1.296   1.268 -20.641  0.00  0.00    -0.503 OA
ATOM     25  H   UNL     1       1.993   1.836 -20.374  0.00  0.00    +0.292 HD
ENDBRANCH   2  24
BRANCH   8  26
ATOM     26  C   UNL     1      -2.980   3.723 -27.091  0.00  0.00    +0.190 C 
BRANCH  26  27
ATOM     27  O   UNL     1      -3.781   3.143 -27.936  0.00  0.00    -0.392 OA
ATOM     28  H   UNL     1      -3.403   3.195 -28.827  0.00  0.00    +0.210 HD
ENDBRANCH  26  27
ENDBRANCH   8  26
TORSDOF 7
ENDMDL
MODEL 3
REMARK VINA RESULT:    -8.311      1.943      4.249
REMARK INTER + INTRA:         -10.611
REMARK INTER:                 -10.751
REMARK INTRA:                   0.140
REMARK UNBOUND:                -0.113
REMARK  Name = ZINC000004046820
REMARK  8 active torsions:
REMARK  status: ('A' for Active; 'I' for Inactive)
REMARK    1  A    between atoms: C_1  and  O_2
REMARK    2  A    between atoms: O_2  and  C_3
REMARK    3  A    between atoms: C_4  and  O_5
REMARK    4  A    between atoms: C_9  and  O_10
REMARK    5  A    between atoms: C_13  and  C_14
REMARK    6  A    between atoms: C_14  and  O_15
REMARK    7  A    between atoms: C_16  and  O_17
REMARK    8  A    between atoms: C_18  and  O_19
REMARK                            x       y       z     vdW  Elec       q    Type
REMARK                         _______ _______ _______ _____ _____    ______ ____
ROOT
ATOM      1  C   UNL     1      -1.157   2.472 -22.284  0.00  0.00    +0.203 A 
ATOM      2  C   UNL     1      -1.495   3.208 -23.301  0.00  0.00    +0.163 A 
ATOM      3  C   UNL     1      -0.593   3.585 -24.158  0.00  0.00    +0.064 A 
ATOM      4  C   UNL     1       0.646   3.226 -23.997  0.00  0.00    +0.072 A 
ATOM      5  C   UNL     1       0.984   2.490 -22.980  0.00  0.00    +0.044 A 
ATOM      6  C   UNL     1       2.223   2.131 -22.820  0.00  0.00    +0.196 C 
ATOM      7  O   UNL     1       2.560   1.395 -21.803  0.00  0.00    -0.360 OA
ATOM      8  C   UNL     1       3.799   1.036 -21.643  0.00  0.00    +0.175 C 
ATOM      9  C   UNL     1       4.701   1.413 -22.499  0.00  0.00    +0.178 C 
ATOM     10  C   UNL     1       4.364   2.149 -23.516  0.00  0.00    +0.189 C 
ATOM     11  C   UNL     1       3.125   2.508 -23.676  0.00  0.00    +0.241 C 
ATOM     12  O   UNL     1       2.788   3.245 -24.694  0.00  0.00    -0.452 OA
ATOM     13  C   UNL     1       1.549   3.604 -24.855  0.00  0.00    +0.340 C 
ATOM     14  O   UNL     1       1.211   4.339 -25.872  0.00  0.00    -0.245 OA
ATOM     15  C   UNL     1       0.082   2.113 -22.124  0.00  0.00    +0.169 A 
ENDROOT
BRANCH   1  17
ATOM     16  C   UNL     1      -2.601   2.966 -20.628  0.00  0.00    +0.277 C 
ATOM     17  O   UNL     1      -2.060   2.095 -21.427  0.00  0.00    -0.489 OA
ENDBRANCH   1  17
BRANCH  10  18
ATOM     18  O   UNL     1       5.266   2.527 -24.373  0.00  0.00    -0.385 OA
ATOM     19  H   UNL     1       4.935   3.288 -24.876  0.00  0.00    +0.210 HD
ENDBRANCH  10  18
BRANCH   9  20
ATOM     20  O   UNL     1       5.940   1.054 -22.339  0.00  0.00    -0.386 OA
ATOM     21  H   UNL     1       6.399   1.088 -23.192  0.00  0.00    +0.210 HD
ENDBRANCH   9  20
BRANCH  15  22
ATOM     22  O   UNL     1       0.419   1.377 -21.106  0.00  0.00    -0.503 OA
ATOM     23  H   UNL     1       1.187   0.841 -21.149  0.00  0.00    +0.292 HD
ENDBRANCH  15  22
BRANCH   2  24
ATOM     24  O   UNL     1      -2.734   3.567 -23.462  0.00  0.00    -0.503 OA
ATOM     25  H   UNL     1      -3.421   2.939 -23.358  0.00  0.00    +0.292 HD
ENDBRANCH   2  24
BRANCH   8  26
ATOM     26  C   UNL     1       4.136   0.301 -20.626  0.00  0.00    +0.190 C 
BRANCH  26  27
ATOM     27  O   UNL     1       5.133   0.655 -19.869  0.00  0.00    -0.392 OA
ATOM     28  H   UNL     1       4.888   0.539 -18.937  0.00  0.00    +0.210 HD
ENDBRANCH  26  27
ENDBRANCH   8  26
TORSDOF 7
ENDMDL
MODEL 4
REMARK VINA RESULT:    -8.306      1.342      3.742
REMARK INTER + INTRA:         -10.604
REMARK INTER:                 -10.591
REMARK INTRA:                  -0.014
REMARK UNBOUND:                -0.113
REMARK  Name = ZINC000004046820
REMARK  8 active torsions:
REMARK  status: ('A' for Active; 'I' for Inactive)
REMARK    1  A    between atoms: C_1  and  O_2
REMARK    2  A    between atoms: O_2  and  C_3
REMARK    3  A    between atoms: C_4  and  O_5
REMARK    4  A    between atoms: C_9  and  O_10
REMARK    5  A    between atoms: C_13  and  C_14
REMARK    6  A    between atoms: C_14  and  O_15
REMARK    7  A    between atoms: C_16  and  O_17
REMARK    8  A    between atoms: C_18  and  O_19
REMARK                            x       y       z     vdW  Elec       q    Type
REMARK                         _______ _______ _______ _____ _____    ______ ____
ROOT
ATOM      1  C   UNL     1      -3.300   2.998 -21.690  0.00  0.00    +0.203 A 
ATOM      2  C   UNL     1      -4.157   3.335 -22.607  0.00  0.00    +0.163 A 
ATOM      3  C   UNL     1      -3.770   3.471 -23.840  0.00  0.00    +0.064 A 
ATOM      4  C   UNL     1      -2.525   3.271 -24.156  0.00  0.00    +0.072 A 
ATOM      5  C   UNL     1      -1.668   2.933 -23.240  0.00  0.00    +0.044 A 
ATOM      6  C   UNL     1      -0.423   2.732 -23.556  0.00  0.00    +0.196 C 
ATOM      7  O   UNL     1       0.435   2.395 -22.640  0.00  0.00    -0.360 OA
ATOM      8  C   UNL     1       1.680   2.194 -22.956  0.00  0.00    +0.175 C 
ATOM      9  C   UNL     1       2.067   2.331 -24.189  0.00  0.00    +0.178 C 
ATOM     10  C   UNL     1       1.209   2.668 -25.106  0.00  0.00    +0.189 C 
ATOM     11  C   UNL     1      -0.036   2.869 -24.789  0.00  0.00    +0.241 C 
ATOM     12  O   UNL     1      -0.893   3.206 -25.707  0.00  0.00    -0.452 OA
ATOM     13  C   UNL     1      -2.138   3.407 -25.390  0.00  0.00    +0.340 C 
ATOM     14  O   UNL     1      -2.996   3.744 -26.307  0.00  0.00    -0.245 OA
ATOM     15  C   UNL     1      -2.055   2.797 -22.007  0.00  0.00    +0.169 A 
ENDROOT
BRANCH   1  17
ATOM     16  C   UNL     1      -3.346   3.746 -19.567  0.00  0.00    +0.277 C 
ATOM     17  O   UNL     1      -3.687   2.861 -20.456  0.00  0.00    -0.489 OA
ENDBRANCH   1  17
BRANCH  10  18
ATOM     18  O   UNL     1       1.596   2.805 -26.340  0.00  0.00    -0.385 OA
ATOM     19  H   UNL     1       2.552   2.648 -26.398  0.00  0.00    +0.210 HD
ENDBRANCH  10  18
BRANCH   9  20
ATOM     20  O   UNL     1       3.312   2.130 -24.506  0.00  0.00    -0.386 OA
ATOM     21  H   UNL     1       3.664   1.395 -23.980  0.00  0.00    +0.210 HD
ENDBRANCH   9  20
BRANCH  15  22
ATOM     22  O   UNL     1      -1.197   2.459 -21.089  0.00  0.00    -0.503 OA
ATOM     23  H   UNL     1      -1.334   1.683 -20.582  0.00  0.00    +0.292 HD
ENDBRANCH  15  22
BRANCH   2  24
ATOM     24  O   UNL     1      -5.402   3.536 -22.290  0.00  0.00    -0.503 OA
ATOM     25  H   UNL     1      -5.656   4.335 -21.872  0.00  0.00    +0.292 HD
ENDBRANCH   2  24
BRANCH   8  26
ATOM     26  C   UNL     1       2.537   1.857 -22.039  0.00  0.00    +0.190 C 
BRANCH  26  27
ATOM     27  O   UNL     1       3.459   2.697 -21.671  0.00  0.00    -0.392 OA
ATOM     28  H   UNL     1       4.118   2.236 -21.128  0.00  0.00    +0.210 HD
ENDBRANCH  26  27
ENDBRANCH   8  26
TORSDOF 7
ENDMDL
MODEL 5
REMARK VINA RESULT:    -8.229      1.386      6.186
REMARK INTER + INTRA:         -10.507
REMARK INTER:                 -10.425
REMARK INTRA:                  -0.082
REMARK UNBOUND:                -0.113
REMARK  Name = ZINC000004046820
REMARK  8 active torsions:
REMARK  status: ('A' for Active; 'I' for Inactive)
REMARK    1  A    between atoms: C_1  and  O_2
REMARK    2  A    between atoms: O_2  and  C_3
REMARK    3  A    between atoms: C_4  and  O_5
REMARK    4  A    between atoms: C_9  and  O_10
REMARK    5  A    between atoms: C_13  and  C_14
REMARK    6  A    between atoms: C_14  and  O_15
REMARK    7  A    between atoms: C_16  and  O_17
REMARK    8  A    between atoms: C_18  and  O_19
REMARK                            x       y       z     vdW  Elec       q    Type
REMARK                         _______ _______ _______ _____ _____    ______ ____
ROOT
ATOM      1  C   UNL     1       2.155   1.147 -22.558  0.00  0.00    +0.203 A 
ATOM      2  C   UNL     1       2.867   1.571 -23.559  0.00  0.00    +0.163 A 
ATOM      3  C   UNL     1       2.343   2.376 -24.434  0.00  0.00    +0.064 A 
ATOM      4  C   UNL     1       1.106   2.757 -24.308  0.00  0.00    +0.072 A 
ATOM      5  C   UNL     1       0.394   2.333 -23.307  0.00  0.00    +0.044 A 
ATOM      6  C   UNL     1      -0.842   2.714 -23.180  0.00  0.00    +0.196 C 
ATOM      7  O   UNL     1      -1.554   2.290 -22.179  0.00  0.00    -0.360 OA
ATOM      8  C   UNL     1      -2.791   2.671 -22.053  0.00  0.00    +0.175 C 
ATOM      9  C   UNL     1      -3.315   3.476 -22.928  0.00  0.00    +0.178 C 
ATOM     10  C   UNL     1      -2.603   3.901 -23.929  0.00  0.00    +0.189 C 
ATOM     11  C   UNL     1      -1.367   3.519 -24.055  0.00  0.00    +0.241 C 
ATOM     12  O   UNL     1      -0.654   3.944 -25.057  0.00  0.00    -0.452 OA
ATOM     13  C   UNL     1       0.582   3.563 -25.183  0.00  0.00    +0.340 C 
ATOM     14  O   UNL     1       1.294   3.987 -26.185  0.00  0.00    -0.245 OA
ATOM     15  C   UNL     1       0.919   1.528 -22.431  0.00  0.00    +0.169 A 
ENDROOT
BRANCH   1  17
ATOM     16  C   UNL     1       3.457   0.810 -20.751  0.00  0.00    +0.277 C 
ATOM     17  O   UNL     1       2.679   0.341 -21.682  0.00  0.00    -0.489 OA
ENDBRANCH   1  17
BRANCH  10  18
ATOM     18  O   UNL     1      -3.127   4.706 -24.805  0.00  0.00    -0.385 OA
ATOM     19  H   UNL     1      -2.570   4.727 -25.599  0.00  0.00    +0.210 HD
ENDBRANCH  10  18
BRANCH   9  20
ATOM     20  O   UNL     1      -4.552   3.857 -22.802  0.00  0.00    -0.386 OA
ATOM     21  H   UNL     1      -5.140   3.103 -22.962  0.00  0.00    +0.210 HD
ENDBRANCH   9  20
BRANCH  15  22
ATOM     22  O   UNL     1       0.206   1.103 -21.430  0.00  0.00    -0.503 OA
ATOM     23  H   UNL     1      -0.278   1.712 -20.907  0.00  0.00    +0.292 HD
ENDBRANCH  15  22
BRANCH   2  24
ATOM     24  O   UNL     1       4.104   1.190 -23.685  0.00  0.00    -0.503 OA
ATOM     25  H   UNL     1       4.649   1.111 -22.927  0.00  0.00    +0.292 HD
ENDBRANCH   2  24
BRANCH   8  26
ATOM     26  C   UNL     1      -3.503   2.247 -21.052  0.00  0.00    +0.190 C 
BRANCH  26  27
ATOM     27  O   UNL     1      -3.713   3.022 -20.029  0.00  0.00    -0.392 OA
ATOM     28  H   UNL     1      -3.302   2.635 -19.241  0.00  0.00    +0.210 HD
ENDBRANCH  26  27
ENDBRANCH   8  26
TORSDOF 7
ENDMDL
MODEL 6
REMARK VINA RESULT:    -7.817      1.245      5.209
REMARK INTER + INTRA:          -9.987
REMARK INTER:                  -9.874
REMARK INTRA:                  -0.113
REMARK UNBOUND:                -0.113
REMARK  Name = ZINC000004046820
REMARK  8 active torsions:
REMARK  status: ('A' for Active; 'I' for Inactive)
REMARK    1  A    between atoms: C_1  and  O_2
REMARK    2  A    between atoms: O_2  and  C_3
REMARK    3  A    between atoms: C_4  and  O_5
REMARK    4  A    between atoms: C_9  and  O_10
REMARK    5  A    between atoms: C_13  and  C_14
REMARK    6  A    between atoms: C_14  and  O_15
REMARK    7  A    between atoms: C_16  and  O_17
REMARK    8  A    between atoms: C_18  and  O_19
REMARK                            x       y       z     vdW  Elec       q    Type
REMARK                         _______ _______ _______ _____ _____    ______ ____
ROOT
ATOM      1  C   UNL     1       1.407   2.378 -24.686  0.00  0.00    +0.203 A 
ATOM      2  C   UNL     1       2.084   1.903 -23.683  0.00  0.00    +0.163 A 
ATOM      3  C   UNL     1       1.508   1.738 -22.530  0.00  0.00    +0.064 A 
ATOM      4  C   UNL     1       0.254   2.047 -22.380  0.00  0.00    +0.072 A 
ATOM      5  C   UNL     1      -0.423   2.521 -23.383  0.00  0.00    +0.044 A 
ATOM      6  C   UNL     1      -1.677   2.830 -23.232  0.00  0.00    +0.196 C 
ATOM      7  O   UNL     1      -2.354   3.304 -24.235  0.00  0.00    -0.360 OA
ATOM      8  C   UNL     1      -3.608   3.613 -24.085  0.00  0.00    +0.175 C 
ATOM      9  C   UNL     1      -4.185   3.448 -22.932  0.00  0.00    +0.178 C 
ATOM     10  C   UNL     1      -3.507   2.974 -21.929  0.00  0.00    +0.189 C 
ATOM     11  C   UNL     1      -2.254   2.665 -22.079  0.00  0.00    +0.241 C 
ATOM     12  O   UNL     1      -1.576   2.191 -21.075  0.00  0.00    -0.452 OA
ATOM     13  C   UNL     1      -0.322   1.882 -21.226  0.00  0.00    +0.340 C 
ATOM     14  O   UNL     1       0.355   1.408 -20.223  0.00  0.00    -0.245 OA
ATOM     15  C   UNL     1       0.153   2.687 -24.536  0.00  0.00    +0.169 A 
ENDROOT
BRANCH   1  17
ATOM     16  C   UNL     1       2.048   1.554 -26.681  0.00  0.00    +0.277 C 
ATOM     17  O   UNL     1       1.983   2.543 -25.840  0.00  0.00    -0.489 OA
ENDBRANCH   1  17
BRANCH  10  18
ATOM     18  O   UNL     1      -4.084   2.809 -20.775  0.00  0.00    -0.385 OA
ATOM     19  H   UNL     1      -4.730   2.088 -20.838  0.00  0.00    +0.210 HD
ENDBRANCH  10  18
BRANCH   9  20
ATOM     20  O   UNL     1      -5.439   3.757 -22.782  0.00  0.00    -0.386 OA
ATOM     21  H   UNL     1      -5.535   4.722 -22.774  0.00  0.00    +0.210 HD
ENDBRANCH   9  20
BRANCH  15  22
ATOM     22  O   UNL     1      -0.524   3.161 -25.539  0.00  0.00    -0.503 OA
ATOM     23  H   UNL     1      -0.832   4.046 -25.521  0.00  0.00    +0.292 HD
ENDBRANCH  15  22
BRANCH   2  24
ATOM     24  O   UNL     1       3.338   1.594 -23.833  0.00  0.00    -0.503 OA
ATOM     25  H   UNL     1       4.002   2.124 -23.437  0.00  0.00    +0.292 HD
ENDBRANCH   2  24
BRANCH   8  26
ATOM     26  C   UNL     1      -4.286   4.088 -25.088  0.00  0.00    +0.190 C 
BRANCH  26  27
ATOM     27  O   UNL     1      -4.485   5.369 -25.191  0.00  0.00    -0.392 OA
ATOM     28  H   UNL     1      -4.276   5.797 -24.346  0.00  0.00    +0.210 HD
ENDBRANCH  26  27
ENDBRANCH   8  26
TORSDOF 7
ENDMDL
MODEL 7
REMARK VINA RESULT:    -7.461      3.714      5.573
REMARK INTER + INTRA:          -9.537
REMARK INTER:                  -9.456
REMARK INTRA:                  -0.081
REMARK UNBOUND:                -0.113
REMARK  Name = ZINC000004046820
REMARK  8 active torsions:
REMARK  status: ('A' for Active; 'I' for Inactive)
REMARK    1  A    between atoms: C_1  and  O_2
REMARK    2  A    between atoms: O_2  and  C_3
REMARK    3  A    between atoms: C_4  and  O_5
REMARK    4  A    between atoms: C_9  and  O_10
REMARK    5  A    between atoms: C_13  and  C_14
REMARK    6  A    between atoms: C_14  and  O_15
REMARK    7  A    between atoms: C_16  and  O_17
REMARK    8  A    between atoms: C_18  and  O_19
REMARK                            x       y       z     vdW  Elec       q    Type
REMARK                         _______ _______ _______ _____ _____    ______ ____
ROOT
ATOM      1  C   UNL     1       0.839   4.445 -23.896  0.00  0.00    +0.203 A 
ATOM      2  C   UNL     1       0.508   3.293 -24.400  0.00  0.00    +0.163 A 
ATOM      3  C   UNL     1       1.402   2.358 -24.524  0.00  0.00    +0.064 A 
ATOM      4  C   UNL     1       2.626   2.574 -24.145  0.00  0.00    +0.072 A 
ATOM      5  C   UNL     1       2.957   3.726 -23.642  0.00  0.00    +0.044 A 
ATOM      6  C   UNL     1       4.182   3.942 -23.263  0.00  0.00    +0.196 C 
ATOM      7  O   UNL     1       4.512   5.094 -22.760  0.00  0.00    -0.360 OA
ATOM      8  C   UNL     1       5.737   5.311 -22.381  0.00  0.00    +0.175 C 
ATOM      9  C   UNL     1       6.631   4.376 -22.506  0.00  0.00    +0.178 C 
ATOM     10  C   UNL     1       6.300   3.224 -23.009  0.00  0.00    +0.189 C 
ATOM     11  C   UNL     1       5.075   3.007 -23.388  0.00  0.00    +0.241 C 
ATOM     12  O   UNL     1       4.745   1.854 -23.892  0.00  0.00    -0.452 OA
ATOM     13  C   UNL     1       3.520   1.638 -24.270  0.00  0.00    +0.340 C 
ATOM     14  O   UNL     1       3.189   0.486 -24.774  0.00  0.00    -0.245 OA
ATOM     15  C   UNL     1       2.063   4.661 -23.517  0.00  0.00    +0.169 A 
ENDROOT
BRANCH   1  17
ATOM     16  C   UNL     1      -0.896   5.348 -22.780  0.00  0.00    +0.277 C 
ATOM     17  O   UNL     1      -0.055   5.381 -23.771  0.00  0.00    -0.489 OA
ENDBRANCH   1  17
BRANCH  10  18
ATOM     18  O   UNL     1       7.194   2.288 -23.134  0.00  0.00    -0.385 OA
ATOM     19  H   UNL     1       7.059   1.619 -22.444  0.00  0.00    +0.210 HD
ENDBRANCH  10  18
BRANCH   9  20
ATOM     20  O   UNL     1       7.855   4.592 -22.127  0.00  0.00    -0.386 OA
ATOM     21  H   UNL     1       7.871   5.315 -21.481  0.00  0.00    +0.210 HD
ENDBRANCH   9  20
BRANCH  15  22
ATOM     22  O   UNL     1       2.394   5.814 -23.014  0.00  0.00    -0.503 OA
ATOM     23  H   UNL     1       2.879   6.428 -23.528  0.00  0.00    +0.292 HD
ENDBRANCH  15  22
BRANCH   2  24
ATOM     24  O   UNL     1      -0.717   3.076 -24.778  0.00  0.00    -0.503 OA
ATOM     25  H   UNL     1      -0.902   2.881 -25.676  0.00  0.00    +0.292 HD
ENDBRANCH   2  24
BRANCH   8  26
ATOM     26  C   UNL     1       6.068   6.463 -21.878  0.00  0.00    +0.190 C 
BRANCH  26  27
ATOM     27  O   UNL     1       6.200   6.596 -20.591  0.00  0.00    -0.392 OA
ATOM     28  H   UNL     1       6.393   7.523 -20.380  0.00  0.00    +0.210 HD
ENDBRANCH  26  27
ENDBRANCH   8  26
TORSDOF 7
ENDMDL
MODEL 8
REMARK VINA RESULT:    -6.768      4.509      7.424
REMARK INTER + INTRA:          -8.661
REMARK INTER:                  -8.731
REMARK INTRA:                   0.069
REMARK UNBOUND:                -0.113
REMARK  Name = ZINC000004046820
REMARK  8 active torsions:
REMARK  status: ('A' for Active; 'I' for Inactive)
REMARK    1  A    between atoms: C_1  and  O_2
REMARK    2  A    between atoms: O_2  and  C_3
REMARK    3  A    between atoms: C_4  and  O_5
REMARK    4  A    between atoms: C_9  and  O_10
REMARK    5  A    between atoms: C_13  and  C_14
REMARK    6  A    between atoms: C_14  and  O_15
REMARK    7  A    between atoms: C_16  and  O_17
REMARK    8  A    between atoms: C_18  and  O_19
REMARK                            x       y       z     vdW  Elec       q    Type
REMARK                         _______ _______ _______ _____ _____    ______ ____
ROOT
ATOM      1  C   UNL     1       5.265   6.888 -22.112  0.00  0.00    +0.203 A 
ATOM      2  C   UNL     1       6.445   6.341 -22.120  0.00  0.00    +0.163 A 
ATOM      3  C   UNL     1       6.589   5.115 -22.526  0.00  0.00    +0.064 A 
ATOM      4  C   UNL     1       5.555   4.436 -22.925  0.00  0.00    +0.072 A 
ATOM      5  C   UNL     1       4.376   4.983 -22.916  0.00  0.00    +0.044 A 
ATOM      6  C   UNL     1       3.341   4.304 -23.315  0.00  0.00    +0.196 C 
ATOM      7  O   UNL     1       2.162   4.851 -23.307  0.00  0.00    -0.360 OA
ATOM      8  C   UNL     1       1.127   4.171 -23.705  0.00  0.00    +0.175 C 
ATOM      9  C   UNL     1       1.272   2.945 -24.111  0.00  0.00    +0.178 C 
ATOM     10  C   UNL     1       2.451   2.399 -24.119  0.00  0.00    +0.189 C 
ATOM     11  C   UNL     1       3.486   3.078 -23.721  0.00  0.00    +0.241 C 
ATOM     12  O   UNL     1       4.665   2.530 -23.729  0.00  0.00    -0.452 OA
ATOM     13  C   UNL     1       5.700   3.209 -23.331  0.00  0.00    +0.340 C 
ATOM     14  O   UNL     1       6.879   2.662 -23.339  0.00  0.00    -0.245 OA
ATOM     15  C   UNL     1       4.231   6.209 -22.510  0.00  0.00    +0.169 A 
ENDROOT
BRANCH   1  17
ATOM     16  C   UNL     1       4.703   8.354 -20.497  0.00  0.00    +0.277 C 
ATOM     17  O   UNL     1       5.120   8.114 -21.705  0.00  0.00    -0.489 OA
ENDBRANCH   1  17
BRANCH  10  18
ATOM     18  O   UNL     1       2.596   1.172 -24.526  0.00  0.00    -0.385 OA
ATOM     19  H   UNL     1       2.768   1.167 -25.481  0.00  0.00    +0.210 HD
ENDBRANCH  10  18
BRANCH   9  20
ATOM     20  O   UNL     1       0.237   2.266 -24.510  0.00  0.00    -0.386 OA
ATOM     21  H   UNL     1       0.139   1.474 -23.959  0.00  0.00    +0.210 HD
ENDBRANCH   9  20
BRANCH  15  22
ATOM     22  O   UNL     1       3.051   6.756 -22.502  0.00  0.00    -0.503 OA
ATOM     23  H   UNL     1       2.287   6.225 -22.611  0.00  0.00    +0.292 HD
ENDBRANCH  15  22
BRANCH   2  24
ATOM     24  O   UNL     1       7.479   7.020 -21.722  0.00  0.00    -0.503 OA
ATOM     25  H   UNL     1       7.588   7.218 -20.812  0.00  0.00    +0.292 HD
ENDBRANCH   2  24
BRANCH   8  26
ATOM     26  C   UNL     1      -0.052   4.718 -23.697  0.00  0.00    +0.190 C 
BRANCH  26  27
ATOM     27  O   UNL     1      -0.336   5.639 -22.823  0.00  0.00    -0.392 OA
ATOM     28  H   UNL     1       0.109   6.465 -23.068  0.00  0.00    +0.210 HD
ENDBRANCH  26  27
ENDBRANCH   8  26
TORSDOF 7
ENDMDL
MODEL 9
REMARK VINA RESULT:    -6.191      6.320      8.421
REMARK INTER + INTRA:          -7.933
REMARK INTER:                  -7.820
REMARK INTRA:                  -0.113
REMARK UNBOUND:                -0.113
REMARK  Name = ZINC000004046820
REMARK  8 active torsions:
REMARK  status: ('A' for Active; 'I' for Inactive)
REMARK    1  A    between atoms: C_1  and  O_2
REMARK    2  A    between atoms: O_2  and  C_3
REMARK    3  A    between atoms: C_4  and  O_5
REMARK    4  A    between atoms: C_9  and  O_10
REMARK    5  A    between atoms: C_13  and  C_14
REMARK    6  A    between atoms: C_14  and  O_15
REMARK    7  A    between atoms: C_16  and  O_17
REMARK    8  A    between atoms: C_18  and  O_19
REMARK                            x       y       z     vdW  Elec       q    Type
REMARK                         _______ _______ _______ _____ _____    ______ ____
ROOT
ATOM      1  C   UNL     1       4.996   8.607 -21.385  0.00  0.00    +0.203 A 
ATOM      2  C   UNL     1       6.223   8.908 -21.078  0.00  0.00    +0.163 A 
ATOM      3  C   UNL     1       7.169   8.034 -21.253  0.00  0.00    +0.064 A 
ATOM      4  C   UNL     1       6.889   6.859 -21.734  0.00  0.00    +0.072 A 
ATOM      5  C   UNL     1       5.662   6.558 -22.041  0.00  0.00    +0.044 A 
ATOM      6  C   UNL     1       5.382   5.384 -22.522  0.00  0.00    +0.196 C 
ATOM      7  O   UNL     1       4.155   5.083 -22.829  0.00  0.00    -0.360 OA
ATOM      8  C   UNL     1       3.875   3.908 -23.310  0.00  0.00    +0.175 C 
ATOM      9  C   UNL     1       4.821   3.034 -23.484  0.00  0.00    +0.178 C 
ATOM     10  C   UNL     1       6.047   3.335 -23.177  0.00  0.00    +0.189 C 
ATOM     11  C   UNL     1       6.328   4.510 -22.696  0.00  0.00    +0.241 C 
ATOM     12  O   UNL     1       7.555   4.811 -22.389  0.00  0.00    -0.452 OA
ATOM     13  C   UNL     1       7.836   5.985 -21.908  0.00  0.00    +0.340 C 
ATOM     14  O   UNL     1       9.062   6.286 -21.601  0.00  0.00    -0.245 OA
ATOM     15  C   UNL     1       4.716   7.432 -21.866  0.00  0.00    +0.169 A 
ENDROOT
BRANCH   1  17
ATOM     16  C   UNL     1       3.817  10.378 -22.123  0.00  0.00    +0.277 C 
ATOM     17  O   UNL     1       4.049   9.481 -21.211  0.00  0.00    -0.489 OA
ENDBRANCH   1  17
BRANCH  10  18
ATOM     18  O   UNL     1       6.995   2.461 -23.351  0.00  0.00    -0.385 OA
ATOM     19  H   UNL     1       6.635   1.568 -23.235  0.00  0.00    +0.210 HD
ENDBRANCH  10  18
BRANCH   9  20
ATOM     20  O   UNL     1       4.540   1.860 -23.965  0.00  0.00    -0.386 OA
ATOM     21  H   UNL     1       4.947   1.177 -23.409  0.00  0.00    +0.210 HD
ENDBRANCH   9  20
BRANCH  15  22
ATOM     22  O   UNL     1       3.488   7.131 -22.173  0.00  0.00    -0.503 OA
ATOM     23  H   UNL     1       3.035   7.624 -22.829  0.00  0.00    +0.292 HD
ENDBRANCH  15  22
BRANCH   2  24
ATOM     24  O   UNL     1       6.503  10.082 -20.597  0.00  0.00    -0.503 OA
ATOM     25  H   UNL     1       6.745  10.174 -19.696  0.00  0.00    +0.292 HD
ENDBRANCH   2  24
BRANCH   8  26
ATOM     26  C   UNL     1       2.648   3.607 -23.617  0.00  0.00    +0.190 C 
BRANCH  26  27
ATOM     27  O   UNL     1       2.314   3.426 -24.860  0.00  0.00    -0.392 OA
ATOM     28  H   UNL     1       2.910   2.775 -25.263  0.00  0.00    +0.210 HD
ENDBRANCH  26  27
ENDBRANCH   8  26
TORSDOF 7
ENDMDL
