MODEL 1
REMARK VINA RESULT:    -8.364      0.000      0.000
REMARK INTER + INTRA:         -11.056
REMARK INTER:                 -11.892
REMARK INTRA:                   0.836
REMARK UNBOUND:                -0.247
REMARK  Name = CC(=O)Oc1c(C(C)C)cc2c(c1OC(C)=O)[C@@]1(C)CCCC(C)(C)C1=C(O)C2=O       ZINC000096932985
REMARK  13 active torsions:
REMARK  status: ('A' for Active; 'I' for Inactive)
REMARK    1  A    between atoms: C_1  and  C_2
REMARK    2  A    between atoms: C_2  and  O_4
REMARK    3  A    between atoms: O_4  and  C_5
REMARK    4  A    between atoms: C_6  and  C_7
REMARK    5  A    between atoms: C_7  and  C_8
REMARK    6  A    between atoms: C_7  and  C_9
REMARK    7  A    between atoms: C_13  and  O_14
REMARK    8  A    between atoms: O_14  and  C_15
REMARK    9  A    between atoms: C_15  and  C_16
REMARK   10  A    between atoms: C_18  and  C_19
REMARK   11  A    between atoms: C_23  and  C_24
REMARK   12  A    between atoms: C_23  and  C_25
REMARK   13  A    between atoms: C_27  and  O_28
REMARK                            x       y       z     vdW  Elec       q    Type
REMARK                         _______ _______ _______ _____ _____    ______ ____
ROOT
ATOM      1  C   UNL     1      -2.804   2.874 -23.913  0.00  0.00    +0.177 A 
ATOM      2  C   UNL     1      -2.488   3.432 -25.032  0.00  0.00    +0.002 A 
ATOM      3  C   UNL     1      -1.249   3.632 -25.321  0.00  0.00    +0.019 A 
ATOM      4  C   UNL     1      -0.326   3.275 -24.495  0.00  0.00    +0.033 A 
ATOM      5  C   UNL     1      -0.646   2.718 -23.378  0.00  0.00    +0.020 A 
ATOM      6  C   UNL     1       0.279   2.359 -22.548  0.00  0.00    +0.022 C 
ATOM      7  C   UNL     1      -0.036   1.806 -21.439  0.00  0.00    +0.016 C 
ATOM      8  C   UNL     1       0.885   1.450 -20.616  0.00  0.00    +0.002 C 
ATOM      9  C   UNL     1       2.119   1.647 -20.900  0.00  0.00    +0.011 C 
ATOM     10  C   UNL     1       2.432   2.201 -22.011  0.00  0.00    -0.009 C 
ATOM     11  C   UNL     1       3.159   2.695 -22.955  0.00  0.00    +0.015 C 
ATOM     12  C   UNL     1       3.607   2.016 -21.512  0.00  0.00    +0.015 C 
ATOM     13  C   UNL     1      -0.961   2.158 -22.257  0.00  0.00    +0.021 C 
ATOM     14  C   UNL     1       1.515   2.559 -22.837  0.00  0.00    -0.008 C 
ATOM     15  C   UNL     1       1.835   3.116 -23.954  0.00  0.00    +0.165 C 
ATOM     16  C   UNL     1       0.912   3.474 -24.783  0.00  0.00    +0.227 C 
ATOM     17  O   UNL     1       1.233   4.032 -25.900  0.00  0.00    -0.283 OA
ATOM     18  C   UNL     1      -1.885   2.515 -23.083  0.00  0.00    +0.179 A 
ENDROOT
BRANCH   2  19
ATOM     19  C   UNL     1      -3.407   3.790 -25.861  0.00  0.00    +0.017 C 
ATOM     20  C   UNL     1      -3.965   4.946 -25.746  0.00  0.00    +0.012 C 
ATOM     21  C   UNL     1      -3.768   2.991 -26.806  0.00  0.00    +0.012 C 
ENDBRANCH   2  19
BRANCH  15  22
ATOM     22  O   UNL     1       3.073   3.316 -24.243  0.00  0.00    -0.503 OA
ATOM     23  H   UNL     1       3.375   3.199 -25.122  0.00  0.00    +0.292 HD
ENDBRANCH  15  22
BRANCH   1  24
ATOM     24  O   UNL     1      -4.046   2.675 -23.626  0.00  0.00    -0.422 OA
BRANCH  24  26
ATOM     25  C   UNL     1      -5.994   3.459 -22.878  0.00  0.00    +0.136 C 
ATOM     26  C   UNL     1      -4.719   3.581 -23.007  0.00  0.00    +0.309 C 
ATOM     27  O   UNL     1      -4.116   4.609 -22.518  0.00  0.00    -0.251 OA
ENDBRANCH  24  26
ENDBRANCH   1  24
BRANCH  18  28
ATOM     28  O   UNL     1      -2.319   1.852 -21.760  0.00  0.00    -0.422 OA
BRANCH  28  29
ATOM     29  C   UNL     1      -3.011   2.431 -20.630  0.00  0.00    +0.309 C 
ATOM     30  O   UNL     1      -2.569   3.536 -20.038  0.00  0.00    -0.251 OA
ATOM     31  C   UNL     1      -4.033   1.935 -20.163  0.00  0.00    +0.136 C 
ENDBRANCH  28  29
ENDBRANCH  18  28
TORSDOF 6
ENDMDL
MODEL 2
REMARK VINA RESULT:    -7.766      1.504      5.452
REMARK INTER + INTRA:         -10.283
REMARK INTER:                 -10.247
REMARK INTRA:                  -0.036
REMARK UNBOUND:                -0.247
REMARK  Name = CC(=O)Oc1c(C(C)C)cc2c(c1OC(C)=O)[C@@]1(C)CCCC(C)(C)C1=C(O)C2=O       ZINC000096932985
REMARK  13 active torsions:
REMARK  status: ('A' for Active; 'I' for Inactive)
REMARK    1  A    between atoms: C_1  and  C_2
REMARK    2  A    between atoms: C_2  and  O_4
REMARK    3  A    between atoms: O_4  and  C_5
REMARK    4  A    between atoms: C_6  and  C_7
REMARK    5  A    between atoms: C_7  and  C_8
REMARK    6  A    between atoms: C_7  and  C_9
REMARK    7  A    between atoms: C_13  and  O_14
REMARK    8  A    between atoms: O_14  and  C_15
REMARK    9  A    between atoms: C_15  and  C_16
REMARK   10  A    between atoms: C_18  and  C_19
REMARK   11  A    between atoms: C_23  and  C_24
REMARK   12  A    between atoms: C_23  and  C_25
REMARK   13  A    between atoms: C_27  and  O_28
REMARK                            x       y       z     vdW  Elec       q    Type
REMARK                         _______ _______ _______ _____ _____    ______ ____
ROOT
ATOM      1  C   UNL     1       0.286   3.098 -23.728  0.00  0.00    +0.177 A 
ATOM      2  C   UNL     1       0.115   3.351 -24.981  0.00  0.00    +0.002 A 
ATOM      3  C   UNL     1      -1.075   3.527 -25.443  0.00  0.00    +0.019 A 
ATOM      4  C   UNL     1      -2.093   3.451 -24.655  0.00  0.00    +0.033 A 
ATOM      5  C   UNL     1      -1.917   3.198 -23.404  0.00  0.00    +0.020 A 
ATOM      6  C   UNL     1      -2.938   3.121 -22.612  0.00  0.00    +0.022 C 
ATOM      7  C   UNL     1      -2.766   2.869 -21.370  0.00  0.00    +0.016 C 
ATOM      8  C   UNL     1      -3.781   2.793 -20.585  0.00  0.00    +0.002 C 
ATOM      9  C   UNL     1      -4.966   2.968 -21.041  0.00  0.00    +0.011 C 
ATOM     10  C   UNL     1      -5.135   3.219 -22.284  0.00  0.00    -0.009 C 
ATOM     11  C   UNL     1      -5.736   3.477 -23.397  0.00  0.00    +0.015 C 
ATOM     12  C   UNL     1      -6.361   3.232 -21.882  0.00  0.00    +0.015 C 
ATOM     13  C   UNL     1      -1.747   2.944 -22.148  0.00  0.00    +0.021 C 
ATOM     14  C   UNL     1      -4.124   3.296 -23.073  0.00  0.00    -0.008 C 
ATOM     15  C   UNL     1      -4.300   3.549 -24.324  0.00  0.00    +0.165 C 
ATOM     16  C   UNL     1      -3.282   3.626 -25.115  0.00  0.00    +0.227 C 
ATOM     17  O   UNL     1      -3.458   3.880 -26.367  0.00  0.00    -0.283 OA
ATOM     18  C   UNL     1      -0.729   3.021 -22.936  0.00  0.00    +0.179 A 
ENDROOT
BRANCH   2  19
ATOM     19  C   UNL     1       1.128   3.429 -25.772  0.00  0.00    +0.017 C 
ATOM     20  C   UNL     1       1.764   2.362 -26.114  0.00  0.00    +0.012 C 
ATOM     21  C   UNL     1       1.507   4.576 -26.221  0.00  0.00    +0.012 C 
ENDBRANCH   2  19
BRANCH  15  22
ATOM     22  O   UNL     1      -5.488   3.725 -24.785  0.00  0.00    -0.503 OA
ATOM     23  H   UNL     1      -5.994   2.990 -25.073  0.00  0.00    +0.292 HD
ENDBRANCH  15  22
BRANCH   1  24
ATOM     24  O   UNL     1       1.478   2.922 -23.268  0.00  0.00    -0.422 OA
BRANCH  24  26
ATOM     25  C   UNL     1       3.481   3.805 -22.849  0.00  0.00    +0.136 C 
ATOM     26  C   UNL     1       2.205   3.937 -22.953  0.00  0.00    +0.309 C 
ATOM     27  O   UNL     1       1.655   5.082 -22.743  0.00  0.00    -0.251 OA
ENDBRANCH  24  26
ENDBRANCH   1  24
BRANCH  18  28
ATOM     28  O   UNL     1      -0.466   2.715 -21.448  0.00  0.00    -0.422 OA
BRANCH  28  29
ATOM     29  C   UNL     1       0.034   1.504 -20.835  0.00  0.00    +0.309 C 
ATOM     30  O   UNL     1      -0.623   0.353 -20.937  0.00  0.00    -0.251 OA
ATOM     31  C   UNL     1       1.082   1.478 -20.195  0.00  0.00    +0.136 C 
ENDBRANCH  28  29
ENDBRANCH  18  28
TORSDOF 6
ENDMDL
MODEL 3
REMARK VINA RESULT:    -7.663      2.948      5.244
REMARK INTER + INTRA:         -10.150
REMARK INTER:                 -11.425
REMARK INTRA:                   1.274
REMARK UNBOUND:                -0.247
REMARK  Name = CC(=O)Oc1c(C(C)C)cc2c(c1OC(C)=O)[C@@]1(C)CCCC(C)(C)C1=C(O)C2=O       ZINC000096932985
REMARK  13 active torsions:
REMARK  status: ('A' for Active; 'I' for Inactive)
REMARK    1  A    between atoms: C_1  and  C_2
REMARK    2  A    between atoms: C_2  and  O_4
REMARK    3  A    between atoms: O_4  and  C_5
REMARK    4  A    between atoms: C_6  and  C_7
REMARK    5  A    between atoms: C_7  and  C_8
REMARK    6  A    between atoms: C_7  and  C_9
REMARK    7  A    between atoms: C_13  and  O_14
REMARK    8  A    between atoms: O_14  and  C_15
REMARK    9  A    between atoms: C_15  and  C_16
REMARK   10  A    between atoms: C_18  and  C_19
REMARK   11  A    between atoms: C_23  and  C_24
REMARK   12  A    between atoms: C_23  and  C_25
REMARK   13  A    between atoms: C_27  and  O_28
REMARK                            x       y       z     vdW  Elec       q    Type
REMARK                         _______ _______ _______ _____ _____    ______ ____
ROOT
ATOM      1  C   UNL     1       1.520   3.288 -23.518  0.00  0.00    +0.177 A 
ATOM      2  C   UNL     1       1.031   4.477 -23.408  0.00  0.00    +0.002 A 
ATOM      3  C   UNL     1       1.810   5.468 -23.139  0.00  0.00    +0.019 A 
ATOM      4  C   UNL     1       3.074   5.273 -22.978  0.00  0.00    +0.033 A 
ATOM      5  C   UNL     1       3.557   4.083 -23.088  0.00  0.00    +0.020 A 
ATOM      6  C   UNL     1       4.826   3.885 -22.927  0.00  0.00    +0.022 C 
ATOM      7  C   UNL     1       5.308   2.706 -23.036  0.00  0.00    +0.016 C 
ATOM      8  C   UNL     1       6.568   2.513 -22.876  0.00  0.00    +0.002 C 
ATOM      9  C   UNL     1       7.346   3.495 -22.607  0.00  0.00    +0.011 C 
ATOM     10  C   UNL     1       6.861   4.675 -22.499  0.00  0.00    -0.009 C 
ATOM     11  C   UNL     1       6.808   5.950 -22.311  0.00  0.00    +0.015 C 
ATOM     12  C   UNL     1       8.106   4.921 -22.273  0.00  0.00    +0.015 C 
ATOM     13  C   UNL     1       4.048   2.893 -23.197  0.00  0.00    +0.021 C 
ATOM     14  C   UNL     1       5.601   4.874 -22.658  0.00  0.00    -0.008 C 
ATOM     15  C   UNL     1       5.118   6.063 -22.548  0.00  0.00    +0.165 C 
ATOM     16  C   UNL     1       3.852   6.261 -22.709  0.00  0.00    +0.227 C 
ATOM     17  O   UNL     1       3.368   7.451 -22.599  0.00  0.00    -0.283 OA
ATOM     18  C   UNL     1       2.783   3.088 -23.358  0.00  0.00    +0.179 A 
ENDROOT
BRANCH   2  19
ATOM     19  C   UNL     1      -0.231   4.677 -23.568  0.00  0.00    +0.017 C 
ATOM     20  C   UNL     1      -0.783   4.445 -24.709  0.00  0.00    +0.012 C 
ATOM     21  C   UNL     1      -0.943   5.110 -22.584  0.00  0.00    +0.012 C 
ENDBRANCH   2  19
BRANCH  15  22
ATOM     22  O   UNL     1       5.895   7.053 -22.279  0.00  0.00    -0.503 OA
ATOM     23  H   UNL     1       5.554   7.816 -21.855  0.00  0.00    +0.292 HD
ENDBRANCH  15  22
BRANCH   1  24
ATOM     24  O   UNL     1       0.738   2.298 -23.788  0.00  0.00    -0.422 OA
BRANCH  24  26
ATOM     25  C   UNL     1       0.310   1.803 -21.657  0.00  0.00    +0.136 C 
ATOM     26  C   UNL     1      -0.063   1.844 -22.889  0.00  0.00    +0.309 C 
ATOM     27  O   UNL     1      -1.236   1.430 -23.222  0.00  0.00    -0.251 OA
ENDBRANCH  24  26
ENDBRANCH   1  24
BRANCH  18  28
ATOM     28  O   UNL     1       3.313   1.647 -23.500  0.00  0.00    -0.422 OA
BRANCH  28  29
ATOM     29  C   UNL     1       3.153   0.520 -22.607  0.00  0.00    +0.309 C 
ATOM     30  O   UNL     1       2.388  -0.518 -22.931  0.00  0.00    -0.251 OA
ATOM     31  C   UNL     1       3.710   0.465 -21.514  0.00  0.00    +0.136 C 
ENDBRANCH  28  29
ENDBRANCH  18  28
TORSDOF 6
ENDMDL
MODEL 4
REMARK VINA RESULT:    -7.631      1.699      4.263
REMARK INTER + INTRA:         -10.108
REMARK INTER:                 -10.674
REMARK INTRA:                   0.566
REMARK UNBOUND:                -0.247
REMARK  Name = CC(=O)Oc1c(C(C)C)cc2c(c1OC(C)=O)[C@@]1(C)CCCC(C)(C)C1=C(O)C2=O       ZINC000096932985
REMARK  13 active torsions:
REMARK  status: ('A' for Active; 'I' for Inactive)
REMARK    1  A    between atoms: C_1  and  C_2
REMARK    2  A    between atoms: C_2  and  O_4
REMARK    3  A    between atoms: O_4  and  C_5
REMARK    4  A    between atoms: C_6  and  C_7
REMARK    5  A    between atoms: C_7  and  C_8
REMARK    6  A    between atoms: C_7  and  C_9
REMARK    7  A    between atoms: C_13  and  O_14
REMARK    8  A    between atoms: O_14  and  C_15
REMARK    9  A    between atoms: C_15  and  C_16
REMARK   10  A    between atoms: C_18  and  C_19
REMARK   11  A    between atoms: C_23  and  C_24
REMARK   12  A    between atoms: C_23  and  C_25
REMARK   13  A    between atoms: C_27  and  O_28
REMARK                            x       y       z     vdW  Elec       q    Type
REMARK                         _______ _______ _______ _____ _____    ______ ____
ROOT
ATOM      1  C   UNL     1      -1.313   3.094 -22.815  0.00  0.00    +0.177 A 
ATOM      2  C   UNL     1      -1.661   2.802 -21.608  0.00  0.00    +0.002 A 
ATOM      3  C   UNL     1      -0.815   2.238 -20.816  0.00  0.00    +0.019 A 
ATOM      4  C   UNL     1       0.376   1.967 -21.227  0.00  0.00    +0.033 A 
ATOM      5  C   UNL     1       0.719   2.261 -22.434  0.00  0.00    +0.020 A 
ATOM      6  C   UNL     1       1.914   1.989 -22.849  0.00  0.00    +0.022 C 
ATOM      7  C   UNL     1       2.257   2.279 -24.046  0.00  0.00    +0.016 C 
ATOM      8  C   UNL     1       3.445   2.008 -24.455  0.00  0.00    +0.002 C 
ATOM      9  C   UNL     1       4.289   1.448 -23.670  0.00  0.00    +0.011 C 
ATOM     10  C   UNL     1       3.943   1.158 -22.473  0.00  0.00    -0.009 C 
ATOM     11  C   UNL     1       4.021   0.717 -21.263  0.00  0.00    +0.015 C 
ATOM     12  C   UNL     1       5.161   0.734 -22.465  0.00  0.00    +0.015 C 
ATOM     13  C   UNL     1       1.069   2.553 -23.643  0.00  0.00    +0.021 C 
ATOM     14  C   UNL     1       2.757   1.427 -22.058  0.00  0.00    -0.008 C 
ATOM     15  C   UNL     1       2.413   1.133 -20.851  0.00  0.00    +0.165 C 
ATOM     16  C   UNL     1       1.221   1.404 -20.437  0.00  0.00    +0.227 C 
ATOM     17  O   UNL     1       0.877   1.110 -19.230  0.00  0.00    -0.283 OA
ATOM     18  C   UNL     1      -0.123   2.825 -23.231  0.00  0.00    +0.179 A 
ENDROOT
BRANCH   2  19
ATOM     19  C   UNL     1      -2.850   3.071 -21.192  0.00  0.00    +0.017 C 
ATOM     20  C   UNL     1      -3.094   4.200 -20.621  0.00  0.00    +0.012 C 
ATOM     21  C   UNL     1      -3.796   2.210 -21.348  0.00  0.00    +0.012 C 
ENDBRANCH   2  19
BRANCH  15  22
ATOM     22  O   UNL     1       3.258   0.570 -20.060  0.00  0.00    -0.503 OA
ATOM     23  H   UNL     1       3.996   1.052 -19.741  0.00  0.00    +0.292 HD
ENDBRANCH  15  22
BRANCH   1  24
ATOM     24  O   UNL     1      -2.161   3.658 -23.606  0.00  0.00    -0.422 OA
BRANCH  24  26
ATOM     25  C   UNL     1      -3.038   3.683 -25.655  0.00  0.00    +0.136 C 
ATOM     26  C   UNL     1      -2.601   3.027 -24.638  0.00  0.00    +0.309 C 
ATOM     27  O   UNL     1      -2.604   1.739 -24.651  0.00  0.00    -0.251 OA
ENDBRANCH  24  26
ENDBRANCH   1  24
BRANCH  18  28
ATOM     28  O   UNL     1       0.240   3.196 -24.684  0.00  0.00    -0.422 OA
BRANCH  28  29
ATOM     29  C   UNL     1       0.994   4.326 -25.179  0.00  0.00    +0.309 C 
ATOM     30  O   UNL     1       1.276   4.459 -26.471  0.00  0.00    -0.251 OA
ATOM     31  C   UNL     1       1.408   5.213 -24.438  0.00  0.00    +0.136 C 
ENDBRANCH  28  29
ENDBRANCH  18  28
TORSDOF 6
ENDMDL
MODEL 5
REMARK VINA RESULT:    -6.644      3.650      6.438
REMARK INTER + INTRA:          -8.833
REMARK INTER:                  -9.902
REMARK INTRA:                   1.069
REMARK UNBOUND:                -0.247
REMARK  Name = CC(=O)Oc1c(C(C)C)cc2c(c1OC(C)=O)[C@@]1(C)CCCC(C)(C)C1=C(O)C2=O       ZINC000096932985
REMARK  13 active torsions:
REMARK  status: ('A' for Active; 'I' for Inactive)
REMARK    1  A    between atoms: C_1  and  C_2
REMARK    2  A    between atoms: C_2  and  O_4
REMARK    3  A    between atoms: O_4  and  C_5
REMARK    4  A    between atoms: C_6  and  C_7
REMARK    5  A    between atoms: C_7  and  C_8
REMARK    6  A    between atoms: C_7  and  C_9
REMARK    7  A    between atoms: C_13  and  O_14
REMARK    8  A    between atoms: O_14  and  C_15
REMARK    9  A    between atoms: C_15  and  C_16
REMARK   10  A    between atoms: C_18  and  C_19
REMARK   11  A    between atoms: C_23  and  C_24
REMARK   12  A    between atoms: C_23  and  C_25
REMARK   13  A    between atoms: C_27  and  O_28
REMARK                            x       y       z     vdW  Elec       q    Type
REMARK                         _______ _______ _______ _____ _____    ______ ____
ROOT
ATOM      1  C   UNL     1       2.734   3.511 -23.525  0.00  0.00    +0.177 A 
ATOM      2  C   UNL     1       1.991   4.566 -23.508  0.00  0.00    +0.002 A 
ATOM      3  C   UNL     1       2.491   5.695 -23.139  0.00  0.00    +0.019 A 
ATOM      4  C   UNL     1       3.728   5.771 -22.788  0.00  0.00    +0.033 A 
ATOM      5  C   UNL     1       4.466   4.715 -22.807  0.00  0.00    +0.020 A 
ATOM      6  C   UNL     1       5.709   4.790 -22.455  0.00  0.00    +0.022 C 
ATOM      7  C   UNL     1       6.443   3.744 -22.473  0.00  0.00    +0.016 C 
ATOM      8  C   UNL     1       7.677   3.821 -22.123  0.00  0.00    +0.002 C 
ATOM      9  C   UNL     1       8.178   4.942 -21.755  0.00  0.00    +0.011 C 
ATOM     10  C   UNL     1       7.441   5.989 -21.739  0.00  0.00    -0.009 C 
ATOM     11  C   UNL     1       7.089   7.220 -21.579  0.00  0.00    +0.015 C 
ATOM     12  C   UNL     1       8.557   6.492 -21.332  0.00  0.00    +0.015 C 
ATOM     13  C   UNL     1       5.211   3.659 -22.823  0.00  0.00    +0.021 C 
ATOM     14  C   UNL     1       6.206   5.917 -22.087  0.00  0.00    -0.008 C 
ATOM     15  C   UNL     1       5.468   6.973 -22.069  0.00  0.00    +0.165 C 
ATOM     16  C   UNL     1       4.228   6.898 -22.420  0.00  0.00    +0.227 C 
ATOM     17  O   UNL     1       3.490   7.956 -22.401  0.00  0.00    -0.283 OA
ATOM     18  C   UNL     1       3.972   3.583 -23.175  0.00  0.00    +0.179 A 
ENDROOT
BRANCH   2  19
ATOM     19  C   UNL     1       0.754   4.494 -23.857  0.00  0.00    +0.017 C 
ATOM     20  C   UNL     1      -0.175   4.774 -23.009  0.00  0.00    +0.012 C 
ATOM     21  C   UNL     1       0.444   4.141 -25.058  0.00  0.00    +0.012 C 
ENDBRANCH   2  19
BRANCH  15  22
ATOM     22  O   UNL     1       5.967   8.101 -21.701  0.00  0.00    -0.503 OA
ATOM     23  H   UNL     1       5.721   8.890 -22.144  0.00  0.00    +0.292 HD
ENDBRANCH  15  22
BRANCH   1  24
ATOM     24  O   UNL     1       2.231   2.382 -23.894  0.00  0.00    -0.422 OA
BRANCH  24  26
ATOM     25  C   UNL     1       1.339   1.797 -21.937  0.00  0.00    +0.136 C 
ATOM     26  C   UNL     1       1.960   1.478 -23.019  0.00  0.00    +0.309 C 
ATOM     27  O   UNL     1       2.310   0.256 -23.226  0.00  0.00    -0.251 OA
ENDBRANCH  24  26
ENDBRANCH   1  24
BRANCH  18  28
ATOM     28  O   UNL     1       4.814   2.291 -23.214  0.00  0.00    -0.422 OA
BRANCH  28  29
ATOM     29  C   UNL     1       5.175   1.400 -22.133  0.00  0.00    +0.309 C 
ATOM     30  O   UNL     1       5.984   0.363 -22.330  0.00  0.00    -0.251 OA
ATOM     31  C   UNL     1       4.757   1.555 -20.989  0.00  0.00    +0.136 C 
ENDBRANCH  28  29
ENDBRANCH  18  28
TORSDOF 6
ENDMDL
MODEL 6
REMARK VINA RESULT:    -6.480      1.225      6.552
REMARK INTER + INTRA:          -8.622
REMARK INTER:                 -10.086
REMARK INTRA:                   1.464
REMARK UNBOUND:                -0.247
REMARK  Name = CC(=O)Oc1c(C(C)C)cc2c(c1OC(C)=O)[C@@]1(C)CCCC(C)(C)C1=C(O)C2=O       ZINC000096932985
REMARK  13 active torsions:
REMARK  status: ('A' for Active; 'I' for Inactive)
REMARK    1  A    between atoms: C_1  and  C_2
REMARK    2  A    between atoms: C_2  and  O_4
REMARK    3  A    between atoms: O_4  and  C_5
REMARK    4  A    between atoms: C_6  and  C_7
REMARK    5  A    between atoms: C_7  and  C_8
REMARK    6  A    between atoms: C_7  and  C_9
REMARK    7  A    between atoms: C_13  and  O_14
REMARK    8  A    between atoms: O_14  and  C_15
REMARK    9  A    between atoms: C_15  and  C_16
REMARK   10  A    between atoms: C_18  and  C_19
REMARK   11  A    between atoms: C_23  and  C_24
REMARK   12  A    between atoms: C_23  and  C_25
REMARK   13  A    between atoms: C_27  and  O_28
REMARK                            x       y       z     vdW  Elec       q    Type
REMARK                         _______ _______ _______ _____ _____    ______ ____
ROOT
ATOM      1  C   UNL     1       1.269   1.999 -22.808  0.00  0.00    +0.177 A 
ATOM      2  C   UNL     1       1.013   1.605 -21.606  0.00  0.00    +0.002 A 
ATOM      3  C   UNL     1      -0.186   1.696 -21.145  0.00  0.00    +0.019 A 
ATOM      4  C   UNL     1      -1.128   2.179 -21.880  0.00  0.00    +0.033 A 
ATOM      5  C   UNL     1      -0.868   2.572 -23.079  0.00  0.00    +0.020 A 
ATOM      6  C   UNL     1      -1.812   3.057 -23.818  0.00  0.00    +0.022 C 
ATOM      7  C   UNL     1      -1.556   3.448 -25.008  0.00  0.00    +0.016 C 
ATOM      8  C   UNL     1      -2.496   3.929 -25.740  0.00  0.00    +0.002 C 
ATOM      9  C   UNL     1      -3.690   4.021 -25.285  0.00  0.00    +0.011 C 
ATOM     10  C   UNL     1      -3.944   3.630 -24.093  0.00  0.00    -0.009 C 
ATOM     11  C   UNL     1      -4.611   3.374 -23.018  0.00  0.00    +0.015 C 
ATOM     12  C   UNL     1      -5.117   4.024 -24.455  0.00  0.00    +0.015 C 
ATOM     13  C   UNL     1      -0.612   2.967 -24.282  0.00  0.00    +0.021 C 
ATOM     14  C   UNL     1      -3.008   3.147 -23.356  0.00  0.00    -0.008 C 
ATOM     15  C   UNL     1      -3.269   2.754 -22.157  0.00  0.00    +0.165 C 
ATOM     16  C   UNL     1      -2.326   2.270 -21.419  0.00  0.00    +0.227 C 
ATOM     17  O   UNL     1      -2.587   1.877 -20.219  0.00  0.00    -0.283 OA
ATOM     18  C   UNL     1       0.330   2.484 -23.547  0.00  0.00    +0.179 A 
ENDROOT
BRANCH   2  19
ATOM     19  C   UNL     1       1.951   1.121 -20.868  0.00  0.00    +0.017 C 
ATOM     20  C   UNL     1       2.818   0.313 -21.373  0.00  0.00    +0.012 C 
ATOM     21  C   UNL     1       2.022   1.447 -19.623  0.00  0.00    +0.012 C 
ENDBRANCH   2  19
BRANCH  15  22
ATOM     22  O   UNL     1      -4.466   2.845 -21.695  0.00  0.00    -0.503 OA
ATOM     23  H   UNL     1      -4.613   3.180 -20.832  0.00  0.00    +0.292 HD
ENDBRANCH  15  22
BRANCH   1  24
ATOM     24  O   UNL     1       2.471   1.908 -23.268  0.00  0.00    -0.422 OA
BRANCH  24  26
ATOM     25  C   UNL     1       4.415   2.887 -23.748  0.00  0.00    +0.136 C 
ATOM     26  C   UNL     1       3.302   2.875 -23.100  0.00  0.00    +0.309 C 
ATOM     27  O   UNL     1       3.021   3.831 -22.284  0.00  0.00    -0.251 OA
ENDBRANCH  24  26
ENDBRANCH   1  24
BRANCH  18  28
ATOM     28  O   UNL     1       0.692   2.940 -24.975  0.00  0.00    -0.422 OA
BRANCH  28  29
ATOM     29  C   UNL     1       1.123   4.240 -25.439  0.00  0.00    +0.309 C 
ATOM     30  O   UNL     1       1.138   4.544 -26.733  0.00  0.00    -0.251 OA
ATOM     31  C   UNL     1       1.493   5.122 -24.669  0.00  0.00    +0.136 C 
ENDBRANCH  28  29
ENDBRANCH  18  28
TORSDOF 6
ENDMDL
MODEL 7
REMARK VINA RESULT:    -6.476      4.404      8.243
REMARK INTER + INTRA:          -8.616
REMARK INTER:                  -8.308
REMARK INTRA:                  -0.308
REMARK UNBOUND:                -0.247
REMARK  Name = CC(=O)Oc1c(C(C)C)cc2c(c1OC(C)=O)[C@@]1(C)CCCC(C)(C)C1=C(O)C2=O       ZINC000096932985
REMARK  13 active torsions:
REMARK  status: ('A' for Active; 'I' for Inactive)
REMARK    1  A    between atoms: C_1  and  C_2
REMARK    2  A    between atoms: C_2  and  O_4
REMARK    3  A    between atoms: O_4  and  C_5
REMARK    4  A    between atoms: C_6  and  C_7
REMARK    5  A    between atoms: C_7  and  C_8
REMARK    6  A    between atoms: C_7  and  C_9
REMARK    7  A    between atoms: C_13  and  O_14
REMARK    8  A    between atoms: O_14  and  C_15
REMARK    9  A    between atoms: C_15  and  C_16
REMARK   10  A    between atoms: C_18  and  C_19
REMARK   11  A    between atoms: C_23  and  C_24
REMARK   12  A    between atoms: C_23  and  C_25
REMARK   13  A    between atoms: C_27  and  O_28
REMARK                            x       y       z     vdW  Elec       q    Type
REMARK                         _______ _______ _______ _____ _____    ______ ____
ROOT
ATOM      1  C   UNL     1       5.505   6.777 -22.118  0.00  0.00    +0.177 A 
ATOM      2  C   UNL     1       4.438   7.503 -22.127  0.00  0.00    +0.002 A 
ATOM      3  C   UNL     1       3.322   6.994 -22.520  0.00  0.00    +0.019 A 
ATOM      4  C   UNL     1       3.269   5.765 -22.903  0.00  0.00    +0.033 A 
ATOM      5  C   UNL     1       4.337   5.044 -22.892  0.00  0.00    +0.020 A 
ATOM      6  C   UNL     1       4.286   3.809 -23.275  0.00  0.00    +0.022 C 
ATOM      7  C   UNL     1       5.344   3.092 -23.265  0.00  0.00    +0.016 C 
ATOM      8  C   UNL     1       5.291   1.866 -23.646  0.00  0.00    +0.002 C 
ATOM      9  C   UNL     1       4.182   1.357 -24.038  0.00  0.00    +0.011 C 
ATOM     10  C   UNL     1       3.124   2.077 -24.048  0.00  0.00    -0.009 C 
ATOM     11  C   UNL     1       1.889   2.412 -24.211  0.00  0.00    +0.015 C 
ATOM     12  C   UNL     1       2.643   0.964 -24.487  0.00  0.00    +0.015 C 
ATOM     13  C   UNL     1       5.405   4.316 -22.882  0.00  0.00    +0.021 C 
ATOM     14  C   UNL     1       3.171   3.303 -23.667  0.00  0.00    -0.008 C 
ATOM     15  C   UNL     1       2.103   4.024 -23.679  0.00  0.00    +0.165 C 
ATOM     16  C   UNL     1       2.154   5.256 -23.296  0.00  0.00    +0.227 C 
ATOM     17  O   UNL     1       1.085   5.977 -23.308  0.00  0.00    -0.283 OA
ATOM     18  C   UNL     1       5.457   5.547 -22.499  0.00  0.00    +0.179 A 
ENDROOT
BRANCH   2  19
ATOM     19  C   UNL     1       4.486   8.732 -21.746  0.00  0.00    +0.017 C 
ATOM     20  C   UNL     1       4.855   9.650 -22.571  0.00  0.00    +0.012 C 
ATOM     21  C   UNL     1       4.164   9.043 -20.537  0.00  0.00    +0.012 C 
ENDBRANCH   2  19
BRANCH  15  22
ATOM     22  O   UNL     1       0.988   3.517 -24.071  0.00  0.00    -0.503 OA
ATOM     23  H   UNL     1       0.183   3.969 -23.908  0.00  0.00    +0.292 HD
ENDBRANCH  15  22
BRANCH   1  24
ATOM     24  O   UNL     1       6.622   7.288 -21.724  0.00  0.00    -0.422 OA
BRANCH  24  26
ATOM     25  C   UNL     1       8.270   7.380 -20.226  0.00  0.00    +0.136 C 
ATOM     26  C   UNL     1       7.080   7.015 -20.552  0.00  0.00    +0.309 C 
ATOM     27  O   UNL     1       6.346   6.376 -19.708  0.00  0.00    -0.251 OA
ENDBRANCH  24  26
ENDBRANCH   1  24
BRANCH  18  28
ATOM     28  O   UNL     1       6.762   4.725 -22.467  0.00  0.00    -0.422 OA
BRANCH  28  29
ATOM     29  C   UNL     1       7.912   4.799 -23.341  0.00  0.00    +0.309 C 
ATOM     30  O   UNL     1       7.777   4.845 -24.663  0.00  0.00    -0.251 OA
ATOM     31  C   UNL     1       9.062   4.822 -22.911  0.00  0.00    +0.136 C 
ENDBRANCH  28  29
ENDBRANCH  18  28
TORSDOF 6
ENDMDL
MODEL 8
REMARK VINA RESULT:    -6.132      4.141      8.293
REMARK INTER + INTRA:          -8.171
REMARK INTER:                  -9.446
REMARK INTRA:                   1.274
REMARK UNBOUND:                -0.247
REMARK  Name = CC(=O)Oc1c(C(C)C)cc2c(c1OC(C)=O)[C@@]1(C)CCCC(C)(C)C1=C(O)C2=O       ZINC000096932985
REMARK  13 active torsions:
REMARK  status: ('A' for Active; 'I' for Inactive)
REMARK    1  A    between atoms: C_1  and  C_2
REMARK    2  A    between atoms: C_2  and  O_4
REMARK    3  A    between atoms: O_4  and  C_5
REMARK    4  A    between atoms: C_6  and  C_7
REMARK    5  A    between atoms: C_7  and  C_8
REMARK    6  A    between atoms: C_7  and  C_9
REMARK    7  A    between atoms: C_13  and  O_14
REMARK    8  A    between atoms: O_14  and  C_15
REMARK    9  A    between atoms: C_15  and  C_16
REMARK   10  A    between atoms: C_18  and  C_19
REMARK   11  A    between atoms: C_23  and  C_24
REMARK   12  A    between atoms: C_23  and  C_25
REMARK   13  A    between atoms: C_27  and  O_28
REMARK                            x       y       z     vdW  Elec       q    Type
REMARK                         _______ _______ _______ _____ _____    ______ ____
ROOT
ATOM      1  C   UNL     1       6.235   5.695 -22.341  0.00  0.00    +0.177 A 
ATOM      2  C   UNL     1       6.956   4.637 -22.180  0.00  0.00    +0.002 A 
ATOM      3  C   UNL     1       6.417   3.472 -22.286  0.00  0.00    +0.019 A 
ATOM      4  C   UNL     1       5.161   3.361 -22.552  0.00  0.00    +0.033 A 
ATOM      5  C   UNL     1       4.444   4.420 -22.712  0.00  0.00    +0.020 A 
ATOM      6  C   UNL     1       3.183   4.311 -22.980  0.00  0.00    +0.022 C 
ATOM      7  C   UNL     1       2.470   5.360 -23.140  0.00  0.00    +0.016 C 
ATOM      8  C   UNL     1       1.218   5.249 -23.405  0.00  0.00    +0.002 C 
ATOM      9  C   UNL     1       0.678   4.092 -23.511  0.00  0.00    +0.011 C 
ATOM     10  C   UNL     1       1.394   3.043 -23.351  0.00  0.00    -0.009 C 
ATOM     11  C   UNL     1       1.714   1.796 -23.273  0.00  0.00    +0.015 C 
ATOM     12  C   UNL     1       0.249   2.500 -23.590  0.00  0.00    +0.015 C 
ATOM     13  C   UNL     1       3.721   5.479 -22.874  0.00  0.00    +0.021 C 
ATOM     14  C   UNL     1       2.647   3.148 -23.085  0.00  0.00    -0.008 C 
ATOM     15  C   UNL     1       3.363   2.089 -22.925  0.00  0.00    +0.165 C 
ATOM     16  C   UNL     1       4.622   2.198 -22.658  0.00  0.00    +0.227 C 
ATOM     17  O   UNL     1       5.338   1.138 -22.497  0.00  0.00    -0.283 OA
ATOM     18  C   UNL     1       4.978   5.589 -22.608  0.00  0.00    +0.179 A 
ENDROOT
BRANCH   2  19
ATOM     19  C   UNL     1       8.212   4.743 -21.914  0.00  0.00    +0.017 C 
ATOM     20  C   UNL     1       8.620   4.697 -20.692  0.00  0.00    +0.012 C 
ATOM     21  C   UNL     1       9.062   4.894 -22.871  0.00  0.00    +0.012 C 
ENDBRANCH   2  19
BRANCH  15  22
ATOM     22  O   UNL     1       2.825   0.925 -23.030  0.00  0.00    -0.503 OA
ATOM     23  H   UNL     1       2.429   0.521 -22.283  0.00  0.00    +0.292 HD
ENDBRANCH  15  22
BRANCH   1  24
ATOM     24  O   UNL     1       6.777   6.860 -22.235  0.00  0.00    -0.422 OA
BRANCH  24  26
ATOM     25  C   UNL     1       7.766   8.395 -20.956  0.00  0.00    +0.136 C 
ATOM     26  C   UNL     1       7.006   7.363 -21.072  0.00  0.00    +0.309 C 
ATOM     27  O   UNL     1       6.474   6.832 -20.026  0.00  0.00    -0.251 OA
ENDBRANCH  24  26
ENDBRANCH   1  24
BRANCH  18  28
ATOM     28  O   UNL     1       4.164   6.886 -22.791  0.00  0.00    -0.422 OA
BRANCH  28  29
ATOM     29  C   UNL     1       4.045   8.025 -21.908  0.00  0.00    +0.309 C 
ATOM     30  O   UNL     1       3.774   7.875 -20.615  0.00  0.00    -0.251 OA
ATOM     31  C   UNL     1       4.186   9.179 -22.304  0.00  0.00    +0.136 C 
ENDBRANCH  28  29
ENDBRANCH  18  28
TORSDOF 6
ENDMDL
MODEL 9
REMARK VINA RESULT:    -6.034      4.858      8.406
REMARK INTER + INTRA:          -8.045
REMARK INTER:                  -7.798
REMARK INTRA:                  -0.247
REMARK UNBOUND:                -0.247
REMARK  Name = CC(=O)Oc1c(C(C)C)cc2c(c1OC(C)=O)[C@@]1(C)CCCC(C)(C)C1=C(O)C2=O       ZINC000096932985
REMARK  13 active torsions:
REMARK  status: ('A' for Active; 'I' for Inactive)
REMARK    1  A    between atoms: C_1  and  C_2
REMARK    2  A    between atoms: C_2  and  O_4
REMARK    3  A    between atoms: O_4  and  C_5
REMARK    4  A    between atoms: C_6  and  C_7
REMARK    5  A    between atoms: C_7  and  C_8
REMARK    6  A    between atoms: C_7  and  C_9
REMARK    7  A    between atoms: C_13  and  O_14
REMARK    8  A    between atoms: O_14  and  C_15
REMARK    9  A    between atoms: C_15  and  C_16
REMARK   10  A    between atoms: C_18  and  C_19
REMARK   11  A    between atoms: C_23  and  C_24
REMARK   12  A    between atoms: C_23  and  C_25
REMARK   13  A    between atoms: C_27  and  O_28
REMARK                            x       y       z     vdW  Elec       q    Type
REMARK                         _______ _______ _______ _____ _____    ______ ____
ROOT
ATOM      1  C   UNL     1       5.552   7.380 -21.829  0.00  0.00    +0.177 A 
ATOM      2  C   UNL     1       4.411   7.971 -21.946  0.00  0.00    +0.002 A 
ATOM      3  C   UNL     1       3.399   7.322 -22.410  0.00  0.00    +0.019 A 
ATOM      4  C   UNL     1       3.525   6.087 -22.756  0.00  0.00    +0.033 A 
ATOM      5  C   UNL     1       4.667   5.501 -22.637  0.00  0.00    +0.020 A 
ATOM      6  C   UNL     1       4.796   4.261 -22.984  0.00  0.00    +0.022 C 
ATOM      7  C   UNL     1       5.927   3.678 -22.867  0.00  0.00    +0.016 C 
ATOM      8  C   UNL     1       6.052   2.447 -23.212  0.00  0.00    +0.002 C 
ATOM      9  C   UNL     1       5.048   1.798 -23.673  0.00  0.00    +0.011 C 
ATOM     10  C   UNL     1       3.916   2.384 -23.790  0.00  0.00    -0.009 C 
ATOM     11  C   UNL     1       2.667   2.563 -24.061  0.00  0.00    +0.015 C 
ATOM     12  C   UNL     1       3.609   1.211 -24.230  0.00  0.00    +0.015 C 
ATOM     13  C   UNL     1       5.810   4.909 -22.520  0.00  0.00    +0.021 C 
ATOM     14  C   UNL     1       3.785   3.615 -23.446  0.00  0.00    -0.008 C 
ATOM     15  C   UNL     1       2.644   4.201 -23.565  0.00  0.00    +0.165 C 
ATOM     16  C   UNL     1       2.515   5.438 -23.219  0.00  0.00    +0.227 C 
ATOM     17  O   UNL     1       1.373   6.023 -23.338  0.00  0.00    -0.283 OA
ATOM     18  C   UNL     1       5.683   6.145 -22.174  0.00  0.00    +0.179 A 
ENDROOT
BRANCH   2  19
ATOM     19  C   UNL     1       4.280   9.205 -21.602  0.00  0.00    +0.017 C 
ATOM     20  C   UNL     1       4.216   9.524 -20.356  0.00  0.00    +0.012 C 
ATOM     21  C   UNL     1       4.214  10.121 -22.506  0.00  0.00    +0.012 C 
ENDBRANCH   2  19
BRANCH  15  22
ATOM     22  O   UNL     1       1.633   3.553 -24.028  0.00  0.00    -0.503 OA
ATOM     23  H   UNL     1       1.479   3.520 -24.952  0.00  0.00    +0.292 HD
ENDBRANCH  15  22
BRANCH   1  24
ATOM     24  O   UNL     1       6.564   8.032 -21.365  0.00  0.00    -0.422 OA
BRANCH  24  26
ATOM     25  C   UNL     1       8.674   8.664 -21.704  0.00  0.00    +0.136 C 
ATOM     26  C   UNL     1       7.492   8.437 -22.159  0.00  0.00    +0.309 C 
ATOM     27  O   UNL     1       7.236   8.613 -23.409  0.00  0.00    -0.251 OA
ENDBRANCH  24  26
ENDBRANCH   1  24
BRANCH  18  28
ATOM     28  O   UNL     1       7.070   5.490 -22.012  0.00  0.00    -0.422 OA
BRANCH  28  29
ATOM     29  C   UNL     1       7.678   4.912 -20.834  0.00  0.00    +0.309 C 
ATOM     30  O   UNL     1       7.023   4.043 -20.070  0.00  0.00    -0.251 OA
ATOM     31  C   UNL     1       8.821   5.192 -20.482  0.00  0.00    +0.136 C 
ENDBRANCH  28  29
ENDBRANCH  18  28
TORSDOF 6
ENDMDL
