MODEL 1
REMARK VINA RESULT:    -9.639      0.000      0.000
REMARK INTER + INTRA:          -9.639
REMARK INTER:                  -9.639
REMARK INTRA:                   0.000
REMARK UNBOUND:                 0.000
REMARK  Name = C=C1C(=O)O[C@H]2[C@@H]3O[C@]3(C)CCC=C(C)CC[C@H]12                    ZINC000253986904
REMARK  2 active torsions:
REMARK  status: ('A' for Active; 'I' for Inactive)
REMARK    1  A    between atoms: C_9  and  C_10
REMARK    2  A    between atoms: C_14  and  C_15
REMARK                            x       y       z     vdW  Elec       q    Type
REMARK                         _______ _______ _______ _____ _____    ______ ____
ROOT
ATOM      1  C   UNL     1      -4.814   3.729 -25.017  0.00  0.00    +0.020 C 
ATOM      2  C   UNL     1      -3.528   3.441 -24.976  0.00  0.00    +0.036 C 
ATOM      3  C   UNL     1      -2.682   3.528 -25.980  0.00  0.00    +0.335 C 
ATOM      4  O   UNL     1      -1.494   3.158 -25.552  0.00  0.00    -0.455 OA
ATOM      5  C   UNL     1      -1.607   2.843 -24.276  0.00  0.00    +0.216 C 
ATOM      6  C   UNL     1      -0.472   2.416 -23.592  0.00  0.00    +0.192 C 
ATOM      7  O   UNL     1       0.717   2.044 -23.153  0.00  0.00    -0.361 OA
ATOM      8  C   UNL     1      -0.319   2.048 -22.334  0.00  0.00    +0.097 C 
ATOM      9  C   UNL     1      -1.522   2.124 -21.650  0.00  0.00    +0.041 C 
ATOM     10  C   UNL     1      -2.674   2.491 -22.096  0.00  0.00    +0.030 C 
ATOM     11  C   UNL     1      -3.814   2.509 -21.245  0.00  0.00    -0.028 C 
ATOM     12  C   UNL     1      -4.834   2.891 -21.855  0.00  0.00    -0.077 C 
ATOM     13  C   UNL     1      -4.543   3.101 -22.881  0.00  0.00    +0.031 C 
ATOM     14  C   UNL     1      -3.274   2.849 -22.958  0.00  0.00    +0.016 C 
ATOM     15  C   UNL     1      -6.049   3.025 -21.380  0.00  0.00    +0.039 C 
ATOM     16  C   UNL     1       0.377   1.621 -21.294  0.00  0.00    +0.044 C 
ATOM     17  O   UNL     1      -2.974   3.918 -27.208  0.00  0.00    -0.245 OA
ATOM     18  C   UNL     1      -2.860   3.017 -23.921  0.00  0.00    +0.069 C 
ENDROOT
TORSDOF 0
ENDMDL
MODEL 2
REMARK VINA RESULT:    -9.334      1.957      4.240
REMARK INTER + INTRA:          -9.334
REMARK INTER:                  -9.334
REMARK INTRA:                   0.000
REMARK UNBOUND:                 0.000
REMARK  Name = C=C1C(=O)O[C@H]2[C@@H]3O[C@]3(C)CCC=C(C)CC[C@H]12                    ZINC000253986904
REMARK  2 active torsions:
REMARK  status: ('A' for Active; 'I' for Inactive)
REMARK    1  A    between atoms: C_9  and  C_10
REMARK    2  A    between atoms: C_14  and  C_15
REMARK                            x       y       z     vdW  Elec       q    Type
REMARK                         _______ _______ _______ _____ _____    ______ ____
ROOT
ATOM      1  C   UNL     1      -0.081   3.645 -25.476  0.00  0.00    +0.020 C 
ATOM      2  C   UNL     1      -0.560   3.549 -24.252  0.00  0.00    +0.036 C 
ATOM      3  C   UNL     1       0.147   3.542 -23.142  0.00  0.00    +0.335 C 
ATOM      4  O   UNL     1      -0.682   3.433 -22.126  0.00  0.00    -0.455 OA
ATOM      5  C   UNL     1      -1.906   3.372 -22.611  0.00  0.00    +0.216 C 
ATOM      6  C   UNL     1      -2.970   3.252 -21.721  0.00  0.00    +0.192 C 
ATOM      7  O   UNL     1      -3.810   3.142 -20.707  0.00  0.00    -0.361 OA
ATOM      8  C   UNL     1      -4.268   3.173 -21.945  0.00  0.00    +0.097 C 
ATOM      9  C   UNL     1      -4.537   3.223 -23.305  0.00  0.00    +0.041 C 
ATOM     10  C   UNL     1      -3.702   3.331 -24.280  0.00  0.00    +0.030 C 
ATOM     11  C   UNL     1      -4.157   3.368 -25.628  0.00  0.00    -0.028 C 
ATOM     12  C   UNL     1      -3.206   3.475 -26.429  0.00  0.00    -0.077 C 
ATOM     13  C   UNL     1      -2.289   3.509 -25.847  0.00  0.00    +0.031 C 
ATOM     14  C   UNL     1      -2.645   3.421 -24.603  0.00  0.00    +0.016 C 
ATOM     15  C   UNL     1      -3.263   3.538 -27.738  0.00  0.00    +0.039 C 
ATOM     16  C   UNL     1      -5.536   3.066 -21.582  0.00  0.00    +0.044 C 
ATOM     17  O   UNL     1       1.463   3.630 -23.061  0.00  0.00    -0.245 OA
ATOM     18  C   UNL     1      -1.832   3.443 -23.921  0.00  0.00    +0.069 C 
ENDROOT
TORSDOF 0
ENDMDL
MODEL 3
REMARK VINA RESULT:    -9.181      2.048      3.541
REMARK INTER + INTRA:          -9.181
REMARK INTER:                  -9.181
REMARK INTRA:                   0.000
REMARK UNBOUND:                 0.000
REMARK  Name = C=C1C(=O)O[C@H]2[C@@H]3O[C@]3(C)CCC=C(C)CC[C@H]12                    ZINC000253986904
REMARK  2 active torsions:
REMARK  status: ('A' for Active; 'I' for Inactive)
REMARK    1  A    between atoms: C_9  and  C_10
REMARK    2  A    between atoms: C_14  and  C_15
REMARK                            x       y       z     vdW  Elec       q    Type
REMARK                         _______ _______ _______ _____ _____    ______ ____
ROOT
ATOM      1  C   UNL     1      -5.302   3.677 -24.121  0.00  0.00    +0.020 C 
ATOM      2  C   UNL     1      -4.507   3.299 -23.140  0.00  0.00    +0.036 C 
ATOM      3  C   UNL     1      -4.859   3.109 -21.886  0.00  0.00    +0.335 C 
ATOM      4  O   UNL     1      -3.793   2.738 -21.210  0.00  0.00    -0.455 OA
ATOM      5  C   UNL     1      -2.777   2.698 -22.050  0.00  0.00    +0.216 C 
ATOM      6  C   UNL     1      -1.526   2.328 -21.566  0.00  0.00    +0.192 C 
ATOM      7  O   UNL     1      -0.450   1.956 -20.896  0.00  0.00    -0.361 OA
ATOM      8  C   UNL     1      -0.368   2.212 -22.189  0.00  0.00    +0.097 C 
ATOM      9  C   UNL     1      -0.499   2.525 -23.534  0.00  0.00    +0.041 C 
ATOM     10  C   UNL     1      -1.558   2.886 -24.170  0.00  0.00    +0.030 C 
ATOM     11  C   UNL     1      -1.511   3.171 -25.564  0.00  0.00    -0.028 C 
ATOM     12  C   UNL     1      -2.631   3.504 -26.001  0.00  0.00    -0.077 C 
ATOM     13  C   UNL     1      -3.329   3.477 -25.169  0.00  0.00    +0.031 C 
ATOM     14  C   UNL     1      -2.644   3.111 -24.131  0.00  0.00    +0.016 C 
ATOM     15  C   UNL     1      -2.946   3.832 -27.231  0.00  0.00    +0.039 C 
ATOM     16  C   UNL     1       0.927   1.950 -22.258  0.00  0.00    +0.044 C 
ATOM     17  O   UNL     1      -6.074   3.264 -21.391  0.00  0.00    -0.245 OA
ATOM     18  C   UNL     1      -3.217   3.044 -23.239  0.00  0.00    +0.069 C 
ENDROOT
TORSDOF 0
ENDMDL
MODEL 4
REMARK VINA RESULT:    -9.009      2.048      3.671
REMARK INTER + INTRA:          -9.009
REMARK INTER:                  -9.009
REMARK INTRA:                   0.000
REMARK UNBOUND:                 0.000
REMARK  Name = C=C1C(=O)O[C@H]2[C@@H]3O[C@]3(C)CCC=C(C)CC[C@H]12                    ZINC000253986904
REMARK  2 active torsions:
REMARK  status: ('A' for Active; 'I' for Inactive)
REMARK    1  A    between atoms: C_9  and  C_10
REMARK    2  A    between atoms: C_14  and  C_15
REMARK                            x       y       z     vdW  Elec       q    Type
REMARK                         _______ _______ _______ _____ _____    ______ ____
ROOT
ATOM      1  C   UNL     1      -4.613   3.353 -22.339  0.00  0.00    +0.020 C 
ATOM      2  C   UNL     1      -3.309   3.378 -22.144  0.00  0.00    +0.036 C 
ATOM      3  C   UNL     1      -2.701   3.388 -20.977  0.00  0.00    +0.335 C 
ATOM      4  O   UNL     1      -1.403   3.414 -21.190  0.00  0.00    -0.455 OA
ATOM      5  C   UNL     1      -1.208   3.419 -22.494  0.00  0.00    +0.216 C 
ATOM      6  C   UNL     1       0.098   3.444 -22.973  0.00  0.00    +0.192 C 
ATOM      7  O   UNL     1       1.400   3.470 -23.197  0.00  0.00    -0.361 OA
ATOM      8  C   UNL     1       0.555   3.454 -24.211  0.00  0.00    +0.097 C 
ATOM      9  C   UNL     1      -0.490   3.435 -25.122  0.00  0.00    +0.041 C 
ATOM     10  C   UNL     1      -1.756   3.410 -24.884  0.00  0.00    +0.030 C 
ATOM     11  C   UNL     1      -2.698   3.393 -25.951  0.00  0.00    -0.028 C 
ATOM     12  C   UNL     1      -3.871   3.370 -25.525  0.00  0.00    -0.077 C 
ATOM     13  C   UNL     1      -3.826   3.370 -24.439  0.00  0.00    +0.031 C 
ATOM     14  C   UNL     1      -2.567   3.394 -24.128  0.00  0.00    +0.016 C 
ATOM     15  C   UNL     1      -4.978   3.349 -26.227  0.00  0.00    +0.039 C 
ATOM     16  C   UNL     1       1.507   3.473 -25.130  0.00  0.00    +0.044 C 
ATOM     17  O   UNL     1      -3.291   3.376 -19.795  0.00  0.00    -0.245 OA
ATOM     18  C   UNL     1      -2.383   3.396 -23.082  0.00  0.00    +0.069 C 
ENDROOT
TORSDOF 0
ENDMDL
MODEL 5
REMARK VINA RESULT:    -8.951      1.307      1.681
REMARK INTER + INTRA:          -8.951
REMARK INTER:                  -8.951
REMARK INTRA:                   0.000
REMARK UNBOUND:                 0.000
REMARK  Name = C=C1C(=O)O[C@H]2[C@@H]3O[C@]3(C)CCC=C(C)CC[C@H]12                    ZINC000253986904
REMARK  2 active torsions:
REMARK  status: ('A' for Active; 'I' for Inactive)
REMARK    1  A    between atoms: C_9  and  C_10
REMARK    2  A    between atoms: C_14  and  C_15
REMARK                            x       y       z     vdW  Elec       q    Type
REMARK                         _______ _______ _______ _____ _____    ______ ____
ROOT
ATOM      1  C   UNL     1      -4.520   3.781 -23.830  0.00  0.00    +0.020 C 
ATOM      2  C   UNL     1      -3.361   3.636 -24.441  0.00  0.00    +0.036 C 
ATOM      3  C   UNL     1      -3.147   3.757 -25.734  0.00  0.00    +0.335 C 
ATOM      4  O   UNL     1      -1.869   3.541 -25.961  0.00  0.00    -0.455 OA
ATOM      5  C   UNL     1      -1.291   3.287 -24.803  0.00  0.00    +0.216 C 
ATOM      6  C   UNL     1       0.076   3.024 -24.784  0.00  0.00    +0.192 C 
ATOM      7  O   UNL     1       1.360   2.806 -25.002  0.00  0.00    -0.361 OA
ATOM      8  C   UNL     1       0.878   2.745 -23.774  0.00  0.00    +0.097 C 
ATOM      9  C   UNL     1       0.178   2.730 -22.578  0.00  0.00    +0.041 C 
ATOM     10  C   UNL     1      -1.077   2.945 -22.384  0.00  0.00    +0.030 C 
ATOM     11  C   UNL     1      -1.634   2.888 -21.076  0.00  0.00    -0.028 C 
ATOM     12  C   UNL     1      -2.860   3.124 -21.090  0.00  0.00    -0.077 C 
ATOM     13  C   UNL     1      -3.147   3.307 -22.121  0.00  0.00    +0.031 C 
ATOM     14  C   UNL     1      -2.065   3.188 -22.827  0.00  0.00    +0.016 C 
ATOM     15  C   UNL     1      -3.682   3.153 -20.068  0.00  0.00    +0.039 C 
ATOM     16  C   UNL     1       2.047   2.454 -23.226  0.00  0.00    +0.044 C 
ATOM     17  O   UNL     1      -4.057   4.044 -26.647  0.00  0.00    -0.245 OA
ATOM     18  C   UNL     1      -2.211   3.346 -23.866  0.00  0.00    +0.069 C 
ENDROOT
TORSDOF 0
ENDMDL
MODEL 6
REMARK VINA RESULT:    -8.870      0.959      3.837
REMARK INTER + INTRA:          -8.870
REMARK INTER:                  -8.870
REMARK INTRA:                   0.000
REMARK UNBOUND:                 0.000
REMARK  Name = C=C1C(=O)O[C@H]2[C@@H]3O[C@]3(C)CCC=C(C)CC[C@H]12                    ZINC000253986904
REMARK  2 active torsions:
REMARK  status: ('A' for Active; 'I' for Inactive)
REMARK    1  A    between atoms: C_9  and  C_10
REMARK    2  A    between atoms: C_14  and  C_15
REMARK                            x       y       z     vdW  Elec       q    Type
REMARK                         _______ _______ _______ _____ _____    ______ ____
ROOT
ATOM      1  C   UNL     1      -0.371   1.911 -21.087  0.00  0.00    +0.020 C 
ATOM      2  C   UNL     1      -0.378   2.232 -22.366  0.00  0.00    +0.036 C 
ATOM      3  C   UNL     1       0.660   2.216 -23.174  0.00  0.00    +0.335 C 
ATOM      4  O   UNL     1       0.259   2.599 -24.368  0.00  0.00    -0.455 OA
ATOM      5  C   UNL     1      -1.033   2.852 -24.296  0.00  0.00    +0.216 C 
ATOM      6  C   UNL     1      -1.694   3.278 -25.445  0.00  0.00    +0.192 C 
ATOM      7  O   UNL     1      -2.106   3.663 -26.639  0.00  0.00    -0.361 OA
ATOM      8  C   UNL     1      -2.961   3.591 -25.636  0.00  0.00    +0.097 C 
ATOM      9  C   UNL     1      -3.686   3.450 -24.462  0.00  0.00    +0.041 C 
ATOM     10  C   UNL     1      -3.265   3.072 -23.305  0.00  0.00    +0.030 C 
ATOM     11  C   UNL     1      -4.157   2.982 -22.199  0.00  0.00    -0.028 C 
ATOM     12  C   UNL     1      -3.568   2.601 -21.167  0.00  0.00    -0.077 C 
ATOM     13  C   UNL     1      -2.523   2.446 -21.423  0.00  0.00    +0.031 C 
ATOM     14  C   UNL     1      -2.411   2.737 -22.682  0.00  0.00    +0.016 C 
ATOM     15  C   UNL     1      -4.081   2.410 -19.975  0.00  0.00    +0.039 C 
ATOM     16  C   UNL     1      -3.994   3.989 -26.361  0.00  0.00    +0.044 C 
ATOM     17  O   UNL     1       1.893   1.876 -22.845  0.00  0.00    -0.245 OA
ATOM     18  C   UNL     1      -1.426   2.626 -23.063  0.00  0.00    +0.069 C 
ENDROOT
TORSDOF 0
ENDMDL
MODEL 7
REMARK VINA RESULT:    -8.804      1.820      4.554
REMARK INTER + INTRA:          -8.804
REMARK INTER:                  -8.804
REMARK INTRA:                   0.000
REMARK UNBOUND:                 0.000
REMARK  Name = C=C1C(=O)O[C@H]2[C@@H]3O[C@]3(C)CCC=C(C)CC[C@H]12                    ZINC000253986904
REMARK  2 active torsions:
REMARK  status: ('A' for Active; 'I' for Inactive)
REMARK    1  A    between atoms: C_9  and  C_10
REMARK    2  A    between atoms: C_14  and  C_15
REMARK                            x       y       z     vdW  Elec       q    Type
REMARK                         _______ _______ _______ _____ _____    ______ ____
ROOT
ATOM      1  C   UNL     1       2.468   2.963 -24.177  0.00  0.00    +0.020 C 
ATOM      2  C   UNL     1       1.177   3.216 -24.259  0.00  0.00    +0.036 C 
ATOM      3  C   UNL     1       0.572   3.850 -25.240  0.00  0.00    +0.335 C 
ATOM      4  O   UNL     1      -0.714   3.906 -24.964  0.00  0.00    -0.455 OA
ATOM      5  C   UNL     1      -0.903   3.304 -23.807  0.00  0.00    +0.216 C 
ATOM      6  C   UNL     1      -2.196   3.233 -23.296  0.00  0.00    +0.192 C 
ATOM      7  O   UNL     1      -3.485   3.284 -23.010  0.00  0.00    -0.361 OA
ATOM      8  C   UNL     1      -2.646   2.694 -22.178  0.00  0.00    +0.097 C 
ATOM      9  C   UNL     1      -1.609   2.130 -21.451  0.00  0.00    +0.041 C 
ATOM     10  C   UNL     1      -0.356   2.090 -21.747  0.00  0.00    +0.030 C 
ATOM     11  C   UNL     1       0.580   1.464 -20.876  0.00  0.00    -0.028 C 
ATOM     12  C   UNL     1       1.740   1.525 -21.331  0.00  0.00    -0.077 C 
ATOM     13  C   UNL     1       1.693   2.052 -22.280  0.00  0.00    +0.031 C 
ATOM     14  C   UNL     1       0.446   2.354 -22.467  0.00  0.00    +0.016 C 
ATOM     15  C   UNL     1       2.838   1.054 -20.791  0.00  0.00    +0.039 C 
ATOM     16  C   UNL     1      -3.586   2.369 -21.307  0.00  0.00    +0.044 C 
ATOM     17  O   UNL     1       1.153   4.345 -26.318  0.00  0.00    -0.245 OA
ATOM     18  C   UNL     1       0.261   2.878 -23.371  0.00  0.00    +0.069 C 
ENDROOT
TORSDOF 0
ENDMDL
MODEL 8
REMARK VINA RESULT:    -8.640      1.975      4.993
REMARK INTER + INTRA:          -8.640
REMARK INTER:                  -8.640
REMARK INTRA:                   0.000
REMARK UNBOUND:                 0.000
REMARK  Name = C=C1C(=O)O[C@H]2[C@@H]3O[C@]3(C)CCC=C(C)CC[C@H]12                    ZINC000253986904
REMARK  2 active torsions:
REMARK  status: ('A' for Active; 'I' for Inactive)
REMARK    1  A    between atoms: C_9  and  C_10
REMARK    2  A    between atoms: C_14  and  C_15
REMARK                            x       y       z     vdW  Elec       q    Type
REMARK                         _______ _______ _______ _____ _____    ______ ____
ROOT
ATOM      1  C   UNL     1      -1.285   2.583 -20.985  0.00  0.00    +0.020 C 
ATOM      2  C   UNL     1      -2.307   2.769 -21.797  0.00  0.00    +0.036 C 
ATOM      3  C   UNL     1      -3.578   2.770 -21.456  0.00  0.00    +0.335 C 
ATOM      4  O   UNL     1      -4.294   2.986 -22.538  0.00  0.00    -0.455 OA
ATOM      5  C   UNL     1      -3.462   3.119 -23.552  0.00  0.00    +0.216 C 
ATOM      6  C   UNL     1      -3.988   3.358 -24.819  0.00  0.00    +0.192 C 
ATOM      7  O   UNL     1      -4.699   3.576 -25.911  0.00  0.00    -0.361 OA
ATOM      8  C   UNL     1      -3.381   3.526 -25.979  0.00  0.00    +0.097 C 
ATOM      9  C   UNL     1      -2.005   3.437 -25.832  0.00  0.00    +0.041 C 
ATOM     10  C   UNL     1      -1.329   3.224 -24.757  0.00  0.00    +0.030 C 
ATOM     11  C   UNL     1       0.093   3.163 -24.790  0.00  0.00    -0.028 C 
ATOM     12  C   UNL     1       0.568   2.949 -23.655  0.00  0.00    -0.077 C 
ATOM     13  C   UNL     1      -0.264   2.870 -22.961  0.00  0.00    +0.031 C 
ATOM     14  C   UNL     1      -1.341   3.039 -23.663  0.00  0.00    +0.016 C 
ATOM     15  C   UNL     1       1.831   2.834 -23.324  0.00  0.00    +0.039 C 
ATOM     16  C   UNL     1      -3.343   3.745 -27.283  0.00  0.00    +0.044 C 
ATOM     17  O   UNL     1      -4.053   2.586 -20.237  0.00  0.00    -0.245 OA
ATOM     18  C   UNL     1      -2.237   2.985 -23.096  0.00  0.00    +0.069 C 
ENDROOT
TORSDOF 0
ENDMDL
MODEL 9
REMARK VINA RESULT:    -8.483      2.459      3.846
REMARK INTER + INTRA:          -8.483
REMARK INTER:                  -8.483
REMARK INTRA:                   0.000
REMARK UNBOUND:                 0.000
REMARK  Name = C=C1C(=O)O[C@H]2[C@@H]3O[C@]3(C)CCC=C(C)CC[C@H]12                    ZINC000253986904
REMARK  2 active torsions:
REMARK  status: ('A' for Active; 'I' for Inactive)
REMARK    1  A    between atoms: C_9  and  C_10
REMARK    2  A    between atoms: C_14  and  C_15
REMARK                            x       y       z     vdW  Elec       q    Type
REMARK                         _______ _______ _______ _____ _____    ______ ____
ROOT
ATOM      1  C   UNL     1      -0.816   3.840 -24.430  0.00  0.00    +0.020 C 
ATOM      2  C   UNL     1       0.437   3.439 -24.352  0.00  0.00    +0.036 C 
ATOM      3  C   UNL     1       1.389   3.695 -25.225  0.00  0.00    +0.335 C 
ATOM      4  O   UNL     1       2.498   3.127 -24.803  0.00  0.00    -0.455 OA
ATOM      5  C   UNL     1       2.231   2.518 -23.665  0.00  0.00    +0.216 C 
ATOM      6  C   UNL     1       3.257   1.837 -23.016  0.00  0.00    +0.192 C 
ATOM      7  O   UNL     1       4.366   1.263 -22.584  0.00  0.00    -0.361 OA
ATOM      8  C   UNL     1       3.251   1.157 -21.885  0.00  0.00    +0.097 C 
ATOM      9  C   UNL     1       1.989   1.168 -21.310  0.00  0.00    +0.041 C 
ATOM     10  C   UNL     1       0.918   1.734 -21.747  0.00  0.00    +0.030 C 
ATOM     11  C   UNL     1      -0.303   1.643 -21.021  0.00  0.00    -0.028 C 
ATOM     12  C   UNL     1      -1.226   2.252 -21.600  0.00  0.00    -0.077 C 
ATOM     13  C   UNL     1      -0.814   2.683 -22.509  0.00  0.00    +0.031 C 
ATOM     14  C   UNL     1       0.437   2.346 -22.538  0.00  0.00    +0.016 C 
ATOM     15  C   UNL     1      -2.473   2.372 -21.214  0.00  0.00    +0.039 C 
ATOM     16  C   UNL     1       3.805   0.426 -20.931  0.00  0.00    +0.044 C 
ATOM     17  O   UNL     1       1.254   4.401 -26.333  0.00  0.00    -0.245 OA
ATOM     18  C   UNL     1       0.961   2.709 -23.387  0.00  0.00    +0.069 C 
ENDROOT
TORSDOF 0
ENDMDL
