MODEL 1
REMARK VINA RESULT:   -10.078      0.000      0.000
REMARK INTER + INTRA:         -10.373
REMARK INTER:                 -10.373
REMARK INTRA:                   0.000
REMARK UNBOUND:                 0.000
REMARK  Name = ZINC000004104910
REMARK  1 active torsions:
REMARK  status: ('A' for Active; 'I' for Inactive)
REMARK    1  A    between atoms: C_16  and  O_17
REMARK                            x       y       z     vdW  Elec       q    Type
REMARK                         _______ _______ _______ _____ _____    ______ ____
ROOT
ATOM      1  O   UNL     1      -0.971   3.532 -25.518  0.00  0.00    -0.286 OA
ATOM      2  C   UNL     1      -1.561   3.233 -24.399  0.00  0.00    +0.198 C 
ATOM      3  C   UNL     1      -2.823   3.501 -24.238  0.00  0.00    +0.034 A 
ATOM      4  C   UNL     1      -3.495   4.069 -25.196  0.00  0.00    +0.012 A 
ATOM      5  C   UNL     1      -4.756   4.337 -25.034  0.00  0.00    +0.002 A 
ATOM      6  C   UNL     1      -5.346   4.037 -23.915  0.00  0.00    +0.016 A 
ATOM      7  C   UNL     1      -4.675   3.470 -22.958  0.00  0.00    +0.029 A 
ATOM      8 BR   UNL     1      -5.265   3.171 -21.839  0.00  0.00    -0.050 Br
ATOM      9  C   UNL     1      -3.413   3.202 -23.119  0.00  0.00    +0.047 A 
ATOM     10  C   UNL     1      -2.741   2.634 -22.161  0.00  0.00    +0.196 C 
ATOM     11  C   UNL     1      -1.480   2.366 -22.323  0.00  0.00    +0.037 A 
ATOM     12  C   UNL     1      -0.808   1.799 -21.365  0.00  0.00    +0.012 A 
ATOM     13  C   UNL     1       0.454   1.531 -21.526  0.00  0.00    +0.004 A 
ATOM     14  C   UNL     1       1.044   1.830 -22.645  0.00  0.00    +0.046 A 
ATOM     15  C   UNL     1       0.373   2.398 -23.603  0.00  0.00    +0.128 A 
ATOM     16  O   UNL     1      -3.331   2.335 -21.042  0.00  0.00    -0.287 OA
ATOM     17  C   UNL     1      -0.890   2.666 -23.442  0.00  0.00    +0.074 A 
ENDROOT
BRANCH  15  18
ATOM     18  O   UNL     1       0.963   2.697 -24.722  0.00  0.00    -0.506 OA
ATOM     19  H   UNL     1       0.511   3.202 -25.369  0.00  0.00    +0.292 HD
ENDBRANCH  15  18
TORSDOF 1
ENDMDL
MODEL 2
REMARK VINA RESULT:    -9.799      1.733      5.200
REMARK INTER + INTRA:         -10.085
REMARK INTER:                 -10.085
REMARK INTRA:                   0.000
REMARK UNBOUND:                 0.000
REMARK  Name = ZINC000004104910
REMARK  1 active torsions:
REMARK  status: ('A' for Active; 'I' for Inactive)
REMARK    1  A    between atoms: C_16  and  O_17
REMARK                            x       y       z     vdW  Elec       q    Type
REMARK                         _______ _______ _______ _____ _____    ______ ____
ROOT
ATOM      1  O   UNL     1      -3.301   2.245 -21.142  0.00  0.00    -0.286 OA
ATOM      2  C   UNL     1      -2.673   2.617 -22.218  0.00  0.00    +0.198 C 
ATOM      3  C   UNL     1      -1.402   2.377 -22.345  0.00  0.00    +0.034 A 
ATOM      4  C   UNL     1      -0.758   1.765 -21.395  0.00  0.00    +0.012 A 
ATOM      5  C   UNL     1       0.513   1.525 -21.522  0.00  0.00    +0.002 A 
ATOM      6  C   UNL     1       1.141   1.897 -22.598  0.00  0.00    +0.016 A 
ATOM      7  C   UNL     1       0.497   2.509 -23.547  0.00  0.00    +0.029 A 
ATOM      8 BR   UNL     1       1.125   2.881 -24.623  0.00  0.00    -0.050 Br
ATOM      9  C   UNL     1      -0.775   2.749 -23.421  0.00  0.00    +0.047 A 
ATOM     10  C   UNL     1      -1.418   3.361 -24.370  0.00  0.00    +0.196 C 
ATOM     11  C   UNL     1      -2.689   3.601 -24.243  0.00  0.00    +0.037 A 
ATOM     12  C   UNL     1      -3.334   4.213 -25.193  0.00  0.00    +0.012 A 
ATOM     13  C   UNL     1      -4.605   4.453 -25.066  0.00  0.00    +0.004 A 
ATOM     14  C   UNL     1      -5.232   4.081 -23.990  0.00  0.00    +0.046 A 
ATOM     15  C   UNL     1      -4.589   3.469 -23.041  0.00  0.00    +0.128 A 
ATOM     16  O   UNL     1      -0.791   3.733 -25.446  0.00  0.00    -0.287 OA
ATOM     17  C   UNL     1      -3.317   3.229 -23.167  0.00  0.00    +0.074 A 
ENDROOT
BRANCH  15  18
ATOM     18  O   UNL     1      -5.216   3.097 -21.965  0.00  0.00    -0.506 OA
ATOM     19  H   UNL     1      -5.864   3.656 -21.583  0.00  0.00    +0.292 HD
ENDBRANCH  15  18
TORSDOF 1
ENDMDL
MODEL 3
REMARK VINA RESULT:    -9.683      1.495      2.961
REMARK INTER + INTRA:          -9.966
REMARK INTER:                  -9.966
REMARK INTRA:                   0.000
REMARK UNBOUND:                 0.000
REMARK  Name = ZINC000004104910
REMARK  1 active torsions:
REMARK  status: ('A' for Active; 'I' for Inactive)
REMARK    1  A    between atoms: C_16  and  O_17
REMARK                            x       y       z     vdW  Elec       q    Type
REMARK                         _______ _______ _______ _____ _____    ______ ____
ROOT
ATOM      1  O   UNL     1      -0.951   2.168 -21.162  0.00  0.00    -0.286 OA
ATOM      2  C   UNL     1      -1.455   2.656 -22.257  0.00  0.00    +0.198 C 
ATOM      3  C   UNL     1      -2.729   2.899 -22.335  0.00  0.00    +0.034 A 
ATOM      4  C   UNL     1      -3.501   2.654 -21.317  0.00  0.00    +0.012 A 
ATOM      5  C   UNL     1      -4.775   2.897 -21.395  0.00  0.00    +0.002 A 
ATOM      6  C   UNL     1      -5.279   3.384 -22.490  0.00  0.00    +0.016 A 
ATOM      7  C   UNL     1      -4.507   3.629 -23.507  0.00  0.00    +0.029 A 
ATOM      8 BR   UNL     1      -5.011   4.116 -24.603  0.00  0.00    -0.050 Br
ATOM      9  C   UNL     1      -3.232   3.386 -23.430  0.00  0.00    +0.047 A 
ATOM     10  C   UNL     1      -2.461   3.631 -24.447  0.00  0.00    +0.196 C 
ATOM     11  C   UNL     1      -1.187   3.388 -24.370  0.00  0.00    +0.037 A 
ATOM     12  C   UNL     1      -0.414   3.632 -25.387  0.00  0.00    +0.012 A 
ATOM     13  C   UNL     1       0.860   3.389 -25.309  0.00  0.00    +0.004 A 
ATOM     14  C   UNL     1       1.363   2.902 -24.214  0.00  0.00    +0.046 A 
ATOM     15  C   UNL     1       0.592   2.658 -23.197  0.00  0.00    +0.128 A 
ATOM     16  O   UNL     1      -2.964   4.118 -25.542  0.00  0.00    -0.287 OA
ATOM     17  C   UNL     1      -0.683   2.900 -23.274  0.00  0.00    +0.074 A 
ENDROOT
BRANCH  15  18
ATOM     18  O   UNL     1       1.095   2.170 -22.102  0.00  0.00    -0.506 OA
ATOM     19  H   UNL     1       1.980   2.368 -21.864  0.00  0.00    +0.292 HD
ENDBRANCH  15  18
TORSDOF 1
ENDMDL
MODEL 4
REMARK VINA RESULT:    -9.683      2.122      4.291
REMARK INTER + INTRA:          -9.966
REMARK INTER:                  -9.966
REMARK INTRA:                   0.000
REMARK UNBOUND:                 0.000
REMARK  Name = ZINC000004104910
REMARK  1 active torsions:
REMARK  status: ('A' for Active; 'I' for Inactive)
REMARK    1  A    between atoms: C_16  and  O_17
REMARK                            x       y       z     vdW  Elec       q    Type
REMARK                         _______ _______ _______ _____ _____    ______ ____
ROOT
ATOM      1  O   UNL     1      -3.145   4.347 -25.340  0.00  0.00    -0.286 OA
ATOM      2  C   UNL     1      -2.667   3.718 -24.308  0.00  0.00    +0.198 C 
ATOM      3  C   UNL     1      -1.407   3.399 -24.267  0.00  0.00    +0.034 A 
ATOM      4  C   UNL     1      -0.626   3.708 -25.260  0.00  0.00    +0.012 A 
ATOM      5  C   UNL     1       0.633   3.388 -25.220  0.00  0.00    +0.002 A 
ATOM      6  C   UNL     1       1.112   2.760 -24.187  0.00  0.00    +0.016 A 
ATOM      7  C   UNL     1       0.331   2.450 -23.195  0.00  0.00    +0.029 A 
ATOM      8 BR   UNL     1       0.809   1.822 -22.163  0.00  0.00    -0.050 Br
ATOM      9  C   UNL     1      -0.929   2.770 -23.235  0.00  0.00    +0.047 A 
ATOM     10  C   UNL     1      -1.710   2.461 -22.243  0.00  0.00    +0.196 C 
ATOM     11  C   UNL     1      -2.969   2.780 -22.283  0.00  0.00    +0.037 A 
ATOM     12  C   UNL     1      -3.750   2.471 -21.291  0.00  0.00    +0.012 A 
ATOM     13  C   UNL     1      -5.010   2.790 -21.331  0.00  0.00    +0.004 A 
ATOM     14  C   UNL     1      -5.488   3.419 -22.363  0.00  0.00    +0.046 A 
ATOM     15  C   UNL     1      -4.707   3.728 -23.355  0.00  0.00    +0.128 A 
ATOM     16  O   UNL     1      -1.231   1.832 -21.211  0.00  0.00    -0.287 OA
ATOM     17  C   UNL     1      -3.447   3.409 -23.316  0.00  0.00    +0.074 A 
ENDROOT
BRANCH  15  18
ATOM     18  O   UNL     1      -5.186   4.357 -24.388  0.00  0.00    -0.506 OA
ATOM     19  H   UNL     1      -5.838   3.950 -24.924  0.00  0.00    +0.292 HD
ENDBRANCH  15  18
TORSDOF 1
ENDMDL
MODEL 5
REMARK VINA RESULT:    -8.909      2.359      4.106
REMARK INTER + INTRA:          -9.169
REMARK INTER:                  -9.169
REMARK INTRA:                   0.000
REMARK UNBOUND:                 0.000
REMARK  Name = ZINC000004104910
REMARK  1 active torsions:
REMARK  status: ('A' for Active; 'I' for Inactive)
REMARK    1  A    between atoms: C_16  and  O_17
REMARK                            x       y       z     vdW  Elec       q    Type
REMARK                         _______ _______ _______ _____ _____    ______ ____
ROOT
ATOM      1  O   UNL     1       0.517   1.319 -20.345  0.00  0.00    -0.286 OA
ATOM      2  C   UNL     1       0.571   1.747 -21.572  0.00  0.00    +0.198 C 
ATOM      3  C   UNL     1      -0.504   2.188 -22.154  0.00  0.00    +0.034 A 
ATOM      4  C   UNL     1      -1.634   2.200 -21.510  0.00  0.00    +0.012 A 
ATOM      5  C   UNL     1      -2.709   2.641 -22.092  0.00  0.00    +0.002 A 
ATOM      6  C   UNL     1      -2.656   3.069 -23.318  0.00  0.00    +0.016 A 
ATOM      7  C   UNL     1      -1.527   3.056 -23.962  0.00  0.00    +0.029 A 
ATOM      8 BR   UNL     1      -1.473   3.484 -25.189  0.00  0.00    -0.050 Br
ATOM      9  C   UNL     1      -0.451   2.615 -23.380  0.00  0.00    +0.047 A 
ATOM     10  C   UNL     1       0.678   2.603 -24.025  0.00  0.00    +0.196 C 
ATOM     11  C   UNL     1       1.753   2.162 -23.442  0.00  0.00    +0.037 A 
ATOM     12  C   UNL     1       2.883   2.149 -24.087  0.00  0.00    +0.012 A 
ATOM     13  C   UNL     1       3.958   1.709 -23.504  0.00  0.00    +0.004 A 
ATOM     14  C   UNL     1       3.905   1.281 -22.278  0.00  0.00    +0.046 A 
ATOM     15  C   UNL     1       2.776   1.294 -21.634  0.00  0.00    +0.128 A 
ATOM     16  O   UNL     1       0.732   3.031 -25.251  0.00  0.00    -0.287 OA
ATOM     17  C   UNL     1       1.700   1.734 -22.216  0.00  0.00    +0.074 A 
ENDROOT
BRANCH  15  18
ATOM     18  O   UNL     1       2.723   0.866 -20.407  0.00  0.00    -0.506 OA
ATOM     19  H   UNL     1       2.269   1.365 -19.756  0.00  0.00    +0.292 HD
ENDBRANCH  15  18
TORSDOF 1
ENDMDL
MODEL 6
REMARK VINA RESULT:    -8.735      2.374      4.553
REMARK INTER + INTRA:          -8.990
REMARK INTER:                  -8.990
REMARK INTRA:                   0.000
REMARK UNBOUND:                 0.000
REMARK  Name = ZINC000004104910
REMARK  1 active torsions:
REMARK  status: ('A' for Active; 'I' for Inactive)
REMARK    1  A    between atoms: C_16  and  O_17
REMARK                            x       y       z     vdW  Elec       q    Type
REMARK                         _______ _______ _______ _____ _____    ______ ____
ROOT
ATOM      1  O   UNL     1      -1.504   3.748 -25.293  0.00  0.00    -0.286 OA
ATOM      2  C   UNL     1      -1.106   3.179 -24.195  0.00  0.00    +0.198 C 
ATOM      3  C   UNL     1       0.132   2.803 -24.069  0.00  0.00    +0.034 A 
ATOM      4  C   UNL     1       0.972   2.997 -25.042  0.00  0.00    +0.012 A 
ATOM      5  C   UNL     1       2.210   2.621 -24.917  0.00  0.00    +0.002 A 
ATOM      6  C   UNL     1       2.608   2.052 -23.818  0.00  0.00    +0.016 A 
ATOM      7  C   UNL     1       1.769   1.858 -22.845  0.00  0.00    +0.029 A 
ATOM      8 BR   UNL     1       2.167   1.289 -21.746  0.00  0.00    -0.050 Br
ATOM      9  C   UNL     1       0.530   2.234 -22.970  0.00  0.00    +0.047 A 
ATOM     10  C   UNL     1      -0.310   2.040 -21.997  0.00  0.00    +0.196 C 
ATOM     11  C   UNL     1      -1.548   2.416 -22.123  0.00  0.00    +0.037 A 
ATOM     12  C   UNL     1      -2.388   2.222 -21.150  0.00  0.00    +0.012 A 
ATOM     13  C   UNL     1      -3.626   2.597 -21.275  0.00  0.00    +0.004 A 
ATOM     14  C   UNL     1      -4.024   3.167 -22.374  0.00  0.00    +0.046 A 
ATOM     15  C   UNL     1      -3.185   3.361 -23.347  0.00  0.00    +0.128 A 
ATOM     16  O   UNL     1       0.088   1.470 -20.899  0.00  0.00    -0.287 OA
ATOM     17  C   UNL     1      -1.946   2.985 -23.222  0.00  0.00    +0.074 A 
ENDROOT
BRANCH  15  18
ATOM     18  O   UNL     1      -3.583   3.930 -24.446  0.00  0.00    -0.506 OA
ATOM     19  H   UNL     1      -4.187   4.646 -24.410  0.00  0.00    +0.292 HD
ENDBRANCH  15  18
TORSDOF 1
ENDMDL
MODEL 7
REMARK VINA RESULT:    -8.598      1.996      3.172
REMARK INTER + INTRA:          -8.849
REMARK INTER:                  -8.849
REMARK INTRA:                   0.000
REMARK UNBOUND:                 0.000
REMARK  Name = ZINC000004104910
REMARK  1 active torsions:
REMARK  status: ('A' for Active; 'I' for Inactive)
REMARK    1  A    between atoms: C_16  and  O_17
REMARK                            x       y       z     vdW  Elec       q    Type
REMARK                         _______ _______ _______ _____ _____    ______ ____
ROOT
ATOM      1  O   UNL     1       1.964   2.659 -25.607  0.00  0.00    -0.286 OA
ATOM      2  C   UNL     1       1.449   2.448 -24.432  0.00  0.00    +0.198 C 
ATOM      3  C   UNL     1       0.230   2.823 -24.180  0.00  0.00    +0.034 A 
ATOM      4  C   UNL     1      -0.474   3.408 -25.103  0.00  0.00    +0.012 A 
ATOM      5  C   UNL     1      -1.693   3.783 -24.851  0.00  0.00    +0.002 A 
ATOM      6  C   UNL     1      -2.208   3.572 -23.676  0.00  0.00    +0.016 A 
ATOM      7  C   UNL     1      -1.504   2.987 -22.753  0.00  0.00    +0.029 A 
ATOM      8 BR   UNL     1      -2.019   2.776 -21.578  0.00  0.00    -0.050 Br
ATOM      9  C   UNL     1      -0.285   2.612 -23.005  0.00  0.00    +0.047 A 
ATOM     10  C   UNL     1       0.419   2.026 -22.082  0.00  0.00    +0.196 C 
ATOM     11  C   UNL     1       1.637   1.652 -22.334  0.00  0.00    +0.037 A 
ATOM     12  C   UNL     1       2.342   1.066 -21.411  0.00  0.00    +0.012 A 
ATOM     13  C   UNL     1       3.561   0.691 -21.664  0.00  0.00    +0.004 A 
ATOM     14  C   UNL     1       4.076   0.902 -22.838  0.00  0.00    +0.046 A 
ATOM     15  C   UNL     1       3.372   1.487 -23.761  0.00  0.00    +0.128 A 
ATOM     16  O   UNL     1      -0.096   1.816 -20.907  0.00  0.00    -0.287 OA
ATOM     17  C   UNL     1       2.152   1.862 -23.509  0.00  0.00    +0.074 A 
ENDROOT
BRANCH  15  18
ATOM     18  O   UNL     1       3.887   1.698 -24.936  0.00  0.00    -0.506 OA
ATOM     19  H   UNL     1       3.863   1.023 -25.586  0.00  0.00    +0.292 HD
ENDBRANCH  15  18
TORSDOF 1
ENDMDL
MODEL 8
REMARK VINA RESULT:    -8.205      3.413      5.508
REMARK INTER + INTRA:          -8.445
REMARK INTER:                  -8.445
REMARK INTRA:                   0.000
REMARK UNBOUND:                 0.000
REMARK  Name = ZINC000004104910
REMARK  1 active torsions:
REMARK  status: ('A' for Active; 'I' for Inactive)
REMARK    1  A    between atoms: C_16  and  O_17
REMARK                            x       y       z     vdW  Elec       q    Type
REMARK                         _______ _______ _______ _____ _____    ______ ____
ROOT
ATOM      1  O   UNL     1       3.012   0.427 -21.298  0.00  0.00    -0.286 OA
ATOM      2  C   UNL     1       2.787   1.558 -21.898  0.00  0.00    +0.198 C 
ATOM      3  C   UNL     1       1.566   1.947 -22.114  0.00  0.00    +0.034 A 
ATOM      4  C   UNL     1       0.569   1.206 -21.729  0.00  0.00    +0.012 A 
ATOM      5  C   UNL     1      -0.652   1.595 -21.944  0.00  0.00    +0.002 A 
ATOM      6  C   UNL     1      -0.878   2.726 -22.545  0.00  0.00    +0.016 A 
ATOM      7  C   UNL     1       0.118   3.467 -22.930  0.00  0.00    +0.029 A 
ATOM      8 BR   UNL     1      -0.107   4.598 -23.530  0.00  0.00    -0.050 Br
ATOM      9  C   UNL     1       1.340   3.078 -22.714  0.00  0.00    +0.047 A 
ATOM     10  C   UNL     1       2.336   3.819 -23.099  0.00  0.00    +0.196 C 
ATOM     11  C   UNL     1       3.557   3.430 -22.884  0.00  0.00    +0.037 A 
ATOM     12  C   UNL     1       4.554   4.172 -23.269  0.00  0.00    +0.012 A 
ATOM     13  C   UNL     1       5.775   3.782 -23.053  0.00  0.00    +0.004 A 
ATOM     14  C   UNL     1       6.000   2.652 -22.453  0.00  0.00    +0.046 A 
ATOM     15  C   UNL     1       5.005   1.910 -22.068  0.00  0.00    +0.128 A 
ATOM     16  O   UNL     1       2.111   4.950 -23.700  0.00  0.00    -0.287 OA
ATOM     17  C   UNL     1       3.782   2.299 -22.283  0.00  0.00    +0.074 A 
ENDROOT
BRANCH  15  18
ATOM     18  O   UNL     1       5.230   0.780 -21.467  0.00  0.00    -0.506 OA
ATOM     19  H   UNL     1       5.247  -0.018 -21.960  0.00  0.00    +0.292 HD
ENDBRANCH  15  18
TORSDOF 1
ENDMDL
MODEL 9
REMARK VINA RESULT:    -8.043      3.655      6.253
REMARK INTER + INTRA:          -8.278
REMARK INTER:                  -8.278
REMARK INTRA:                   0.000
REMARK UNBOUND:                 0.000
REMARK  Name = ZINC000004104910
REMARK  1 active torsions:
REMARK  status: ('A' for Active; 'I' for Inactive)
REMARK    1  A    between atoms: C_16  and  O_17
REMARK                            x       y       z     vdW  Elec       q    Type
REMARK                         _______ _______ _______ _____ _____    ______ ____
ROOT
ATOM      1  O   UNL     1       1.950   5.357 -23.765  0.00  0.00    -0.286 OA
ATOM      2  C   UNL     1       2.073   4.176 -23.236  0.00  0.00    +0.198 C 
ATOM      3  C   UNL     1       3.254   3.685 -23.010  0.00  0.00    +0.034 A 
ATOM      4  C   UNL     1       4.315   4.374 -23.314  0.00  0.00    +0.012 A 
ATOM      5  C   UNL     1       5.496   3.883 -23.088  0.00  0.00    +0.002 A 
ATOM      6  C   UNL     1       5.619   2.702 -22.559  0.00  0.00    +0.016 A 
ATOM      7  C   UNL     1       4.560   2.012 -22.255  0.00  0.00    +0.029 A 
ATOM      8 BR   UNL     1       4.682   0.831 -21.726  0.00  0.00    -0.050 Br
ATOM      9  C   UNL     1       3.377   2.504 -22.481  0.00  0.00    +0.047 A 
ATOM     10  C   UNL     1       2.318   1.814 -22.177  0.00  0.00    +0.196 C 
ATOM     11  C   UNL     1       1.136   2.306 -22.403  0.00  0.00    +0.037 A 
ATOM     12  C   UNL     1       0.076   1.616 -22.100  0.00  0.00    +0.012 A 
ATOM     13  C   UNL     1      -1.106   2.108 -22.325  0.00  0.00    +0.004 A 
ATOM     14  C   UNL     1      -1.228   3.289 -22.855  0.00  0.00    +0.046 A 
ATOM     15  C   UNL     1      -0.169   3.978 -23.158  0.00  0.00    +0.128 A 
ATOM     16  O   UNL     1       2.440   0.633 -21.648  0.00  0.00    -0.287 OA
ATOM     17  C   UNL     1       1.014   3.487 -22.932  0.00  0.00    +0.074 A 
ENDROOT
BRANCH  15  18
ATOM     18  O   UNL     1      -0.292   5.159 -23.687  0.00  0.00    -0.506 OA
ATOM     19  H   UNL     1       0.251   5.864 -23.392  0.00  0.00    +0.292 HD
ENDBRANCH  15  18
TORSDOF 1
ENDMDL
