MODEL 1
REMARK VINA RESULT:    -6.284      0.000      0.000
REMARK INTER + INTRA:          -7.661
REMARK INTER:                  -7.400
REMARK INTRA:                  -0.261
REMARK UNBOUND:                -0.276
REMARK  Name = ZINC000000392017
REMARK  5 active torsions:
REMARK  status: ('A' for Active; 'I' for Inactive)
REMARK    1  A    between atoms: C_1  and  O_2
REMARK    2  A    between atoms: O_2  and  C_3
REMARK    3  A    between atoms: C_6  and  C_7
REMARK    4  A    between atoms: C_11  and  O_12
REMARK    5  A    between atoms: O_12  and  C_13
REMARK                            x       y       z     vdW  Elec       q    Type
REMARK                         _______ _______ _______ _____ _____    ______ ____
ROOT
ATOM      1  C   UNL     1      -3.301   3.134 -22.782  0.00  0.00    +0.162 A 
ATOM      2  C   UNL     1      -2.916   3.067 -21.542  0.00  0.00    +0.050 A 
ATOM      3  C   UNL     1      -1.760   2.550 -21.248  0.00  0.00    +0.013 A 
ATOM      4  C   UNL     1      -0.989   2.101 -22.193  0.00  0.00    +0.001 A 
ATOM      5  C   UNL     1      -1.374   2.168 -23.433  0.00  0.00    +0.059 A 
ATOM      6  C   UNL     1      -2.530   2.685 -23.727  0.00  0.00    +0.162 A 
ENDROOT
BRANCH   4   7
ATOM      7  C   UNL     1       0.167   1.584 -21.898  0.00  0.00    +0.072 C 
ATOM      8  O   UNL     1       1.031   1.348 -22.840  0.00  0.00    -0.545 OA
ATOM      9  O   UNL     1       0.458   1.304 -20.663  0.00  0.00    -0.545 OA
ENDBRANCH   4   7
BRANCH   1  11
ATOM     10  C   UNL     1      -5.503   3.351 -22.365  0.00  0.00    +0.277 C 
ATOM     11  O   UNL     1      -4.457   3.651 -23.076  0.00  0.00    -0.491 OA
ENDBRANCH   1  11
BRANCH   6  12
ATOM     12  O   UNL     1      -2.915   2.752 -24.967  0.00  0.00    -0.491 OA
ATOM     13  C   UNL     1      -2.200   3.405 -25.834  0.00  0.00    +0.277 C 
ENDBRANCH   6  12
TORSDOF 3
ENDMDL
MODEL 2
REMARK VINA RESULT:    -6.086      1.217      4.102
REMARK INTER + INTRA:          -7.429
REMARK INTER:                  -7.167
REMARK INTRA:                  -0.262
REMARK UNBOUND:                -0.276
REMARK  Name = ZINC000000392017
REMARK  5 active torsions:
REMARK  status: ('A' for Active; 'I' for Inactive)
REMARK    1  A    between atoms: C_1  and  O_2
REMARK    2  A    between atoms: O_2  and  C_3
REMARK    3  A    between atoms: C_6  and  C_7
REMARK    4  A    between atoms: C_11  and  O_12
REMARK    5  A    between atoms: O_12  and  C_13
REMARK                            x       y       z     vdW  Elec       q    Type
REMARK                         _______ _______ _______ _____ _____    ______ ____
ROOT
ATOM      1  C   UNL     1      -1.380   2.705 -22.089  0.00  0.00    +0.162 A 
ATOM      2  C   UNL     1      -2.189   2.833 -21.078  0.00  0.00    +0.050 A 
ATOM      3  C   UNL     1      -3.448   3.083 -21.281  0.00  0.00    +0.013 A 
ATOM      4  C   UNL     1      -3.900   3.206 -22.494  0.00  0.00    +0.001 A 
ATOM      5  C   UNL     1      -3.091   3.079 -23.504  0.00  0.00    +0.059 A 
ATOM      6  C   UNL     1      -1.832   2.829 -23.302  0.00  0.00    +0.162 A 
ENDROOT
BRANCH   4   7
ATOM      7  C   UNL     1      -5.159   3.456 -22.696  0.00  0.00    +0.072 C 
ATOM      8  O   UNL     1      -5.555   3.904 -23.851  0.00  0.00    -0.545 OA
ATOM      9  O   UNL     1      -6.023   3.260 -21.745  0.00  0.00    -0.545 OA
ENDBRANCH   4   7
BRANCH   1  11
ATOM     10  C   UNL     1       0.229   1.491 -21.089  0.00  0.00    +0.277 C 
ATOM     11  O   UNL     1      -0.121   2.455 -21.886  0.00  0.00    -0.491 OA
ENDBRANCH   1  11
BRANCH   6  12
ATOM     12  O   UNL     1      -1.024   2.702 -24.312  0.00  0.00    -0.491 OA
ATOM     13  C   UNL     1      -0.914   3.663 -25.180  0.00  0.00    +0.277 C 
ENDBRANCH   6  12
TORSDOF 3
ENDMDL
MODEL 3
REMARK VINA RESULT:    -5.961      1.569      3.854
REMARK INTER + INTRA:          -7.283
REMARK INTER:                  -7.023
REMARK INTRA:                  -0.260
REMARK UNBOUND:                -0.276
REMARK  Name = ZINC000000392017
REMARK  5 active torsions:
REMARK  status: ('A' for Active; 'I' for Inactive)
REMARK    1  A    between atoms: C_1  and  O_2
REMARK    2  A    between atoms: O_2  and  C_3
REMARK    3  A    between atoms: C_6  and  C_7
REMARK    4  A    between atoms: C_11  and  O_12
REMARK    5  A    between atoms: O_12  and  C_13
REMARK                            x       y       z     vdW  Elec       q    Type
REMARK                         _______ _______ _______ _____ _____    ______ ____
ROOT
ATOM      1  C   UNL     1      -0.543   2.404 -23.220  0.00  0.00    +0.162 A 
ATOM      2  C   UNL     1      -0.576   2.026 -21.976  0.00  0.00    +0.050 A 
ATOM      3  C   UNL     1      -1.531   2.437 -21.196  0.00  0.00    +0.013 A 
ATOM      4  C   UNL     1      -2.454   3.227 -21.660  0.00  0.00    +0.001 A 
ATOM      5  C   UNL     1      -2.421   3.605 -22.904  0.00  0.00    +0.059 A 
ATOM      6  C   UNL     1      -1.466   3.193 -23.683  0.00  0.00    +0.162 A 
ENDROOT
BRANCH   4   7
ATOM      7  C   UNL     1      -3.409   3.639 -20.880  0.00  0.00    +0.072 C 
ATOM      8  O   UNL     1      -3.190   3.788 -19.608  0.00  0.00    -0.545 OA
ATOM      9  O   UNL     1      -4.583   3.901 -21.373  0.00  0.00    -0.545 OA
ENDBRANCH   4   7
BRANCH   1  11
ATOM     10  C   UNL     1       1.652   2.204 -23.675  0.00  0.00    +0.277 C 
ATOM     11  O   UNL     1       0.412   1.992 -24.000  0.00  0.00    -0.491 OA
ENDBRANCH   1  11
BRANCH   6  12
ATOM     12  O   UNL     1      -1.434   3.571 -24.927  0.00  0.00    -0.491 OA
ATOM     13  C   UNL     1      -2.497   3.463 -25.666  0.00  0.00    +0.277 C 
ENDBRANCH   6  12
TORSDOF 3
ENDMDL
MODEL 4
REMARK VINA RESULT:    -5.871      1.552      4.583
REMARK INTER + INTRA:          -7.177
REMARK INTER:                  -6.925
REMARK INTRA:                  -0.252
REMARK UNBOUND:                -0.276
REMARK  Name = ZINC000000392017
REMARK  5 active torsions:
REMARK  status: ('A' for Active; 'I' for Inactive)
REMARK    1  A    between atoms: C_1  and  O_2
REMARK    2  A    between atoms: O_2  and  C_3
REMARK    3  A    between atoms: C_6  and  C_7
REMARK    4  A    between atoms: C_11  and  O_12
REMARK    5  A    between atoms: O_12  and  C_13
REMARK                            x       y       z     vdW  Elec       q    Type
REMARK                         _______ _______ _______ _____ _____    ______ ____
ROOT
ATOM      1  C   UNL     1      -0.784   3.073 -24.121  0.00  0.00    +0.162 A 
ATOM      2  C   UNL     1      -1.600   3.949 -24.631  0.00  0.00    +0.050 A 
ATOM      3  C   UNL     1      -2.814   4.047 -24.178  0.00  0.00    +0.013 A 
ATOM      4  C   UNL     1      -3.215   3.269 -23.217  0.00  0.00    +0.001 A 
ATOM      5  C   UNL     1      -2.400   2.392 -22.708  0.00  0.00    +0.059 A 
ATOM      6  C   UNL     1      -1.185   2.295 -23.160  0.00  0.00    +0.162 A 
ENDROOT
BRANCH   4   7
ATOM      7  C   UNL     1      -4.430   3.366 -22.765  0.00  0.00    +0.072 C 
ATOM      8  O   UNL     1      -4.690   3.055 -21.530  0.00  0.00    -0.545 OA
ATOM      9  O   UNL     1      -5.384   3.775 -23.548  0.00  0.00    -0.545 OA
ENDBRANCH   4   7
BRANCH   1  11
ATOM     10  C   UNL     1       0.931   3.929 -25.301  0.00  0.00    +0.277 C 
ATOM     11  O   UNL     1       0.430   2.975 -24.573  0.00  0.00    -0.491 OA
ENDBRANCH   1  11
BRANCH   6  12
ATOM     12  O   UNL     1      -0.371   1.419 -22.651  0.00  0.00    -0.491 OA
ATOM     13  C   UNL     1      -0.105   1.442 -21.379  0.00  0.00    +0.277 C 
ENDBRANCH   6  12
TORSDOF 3
ENDMDL
MODEL 5
REMARK VINA RESULT:    -5.784      1.761      4.365
REMARK INTER + INTRA:          -7.074
REMARK INTER:                  -6.832
REMARK INTRA:                  -0.242
REMARK UNBOUND:                -0.276
REMARK  Name = ZINC000000392017
REMARK  5 active torsions:
REMARK  status: ('A' for Active; 'I' for Inactive)
REMARK    1  A    between atoms: C_1  and  O_2
REMARK    2  A    between atoms: O_2  and  C_3
REMARK    3  A    between atoms: C_6  and  C_7
REMARK    4  A    between atoms: C_11  and  O_12
REMARK    5  A    between atoms: O_12  and  C_13
REMARK                            x       y       z     vdW  Elec       q    Type
REMARK                         _______ _______ _______ _____ _____    ______ ____
ROOT
ATOM      1  C   UNL     1      -1.263   2.902 -22.875  0.00  0.00    +0.162 A 
ATOM      2  C   UNL     1      -2.469   3.024 -22.404  0.00  0.00    +0.050 A 
ATOM      3  C   UNL     1      -3.453   3.311 -23.204  0.00  0.00    +0.013 A 
ATOM      4  C   UNL     1      -3.232   3.476 -24.474  0.00  0.00    +0.001 A 
ATOM      5  C   UNL     1      -2.025   3.354 -24.945  0.00  0.00    +0.059 A 
ATOM      6  C   UNL     1      -1.041   3.067 -24.145  0.00  0.00    +0.162 A 
ENDROOT
BRANCH   4   7
ATOM      7  C   UNL     1      -4.215   3.763 -25.273  0.00  0.00    +0.072 C 
ATOM      8  O   UNL     1      -4.868   4.877 -25.126  0.00  0.00    -0.545 OA
ATOM      9  O   UNL     1      -4.547   2.936 -26.220  0.00  0.00    -0.545 OA
ENDBRANCH   4   7
BRANCH   1  11
ATOM     10  C   UNL     1      -0.261   1.476 -21.450  0.00  0.00    +0.277 C 
ATOM     11  O   UNL     1      -0.279   2.615 -22.076  0.00  0.00    -0.491 OA
ENDBRANCH   1  11
BRANCH   6  12
ATOM     12  O   UNL     1       0.164   2.946 -24.616  0.00  0.00    -0.491 OA
ATOM     13  C   UNL     1       0.708   3.928 -25.270  0.00  0.00    +0.277 C 
ENDBRANCH   6  12
TORSDOF 3
ENDMDL
MODEL 6
REMARK VINA RESULT:    -5.703      1.868      2.469
REMARK INTER + INTRA:          -6.979
REMARK INTER:                  -6.745
REMARK INTRA:                  -0.234
REMARK UNBOUND:                -0.276
REMARK  Name = ZINC000000392017
REMARK  5 active torsions:
REMARK  status: ('A' for Active; 'I' for Inactive)
REMARK    1  A    between atoms: C_1  and  O_2
REMARK    2  A    between atoms: O_2  and  C_3
REMARK    3  A    between atoms: C_6  and  C_7
REMARK    4  A    between atoms: C_11  and  O_12
REMARK    5  A    between atoms: O_12  and  C_13
REMARK                            x       y       z     vdW  Elec       q    Type
REMARK                         _______ _______ _______ _____ _____    ______ ____
ROOT
ATOM      1  C   UNL     1      -1.176   2.500 -22.779  0.00  0.00    +0.162 A 
ATOM      2  C   UNL     1      -1.027   1.934 -21.618  0.00  0.00    +0.050 A 
ATOM      3  C   UNL     1       0.151   1.541 -21.232  0.00  0.00    +0.013 A 
ATOM      4  C   UNL     1       1.180   1.715 -22.007  0.00  0.00    +0.001 A 
ATOM      5  C   UNL     1       1.031   2.281 -23.168  0.00  0.00    +0.059 A 
ATOM      6  C   UNL     1      -0.146   2.674 -23.554  0.00  0.00    +0.162 A 
ENDROOT
BRANCH   4   7
ATOM      7  C   UNL     1       2.358   1.322 -21.621  0.00  0.00    +0.072 C 
ATOM      8  O   UNL     1       3.129   2.134 -20.962  0.00  0.00    -0.545 OA
ATOM      9  O   UNL     1       2.763   0.118 -21.895  0.00  0.00    -0.545 OA
ENDBRANCH   4   7
BRANCH   1  11
ATOM     10  C   UNL     1      -3.176   3.417 -22.306  0.00  0.00    +0.277 C 
ATOM     11  O   UNL     1      -2.353   2.893 -23.165  0.00  0.00    -0.491 OA
ENDBRANCH   1  11
BRANCH   6  12
ATOM     12  O   UNL     1      -0.294   3.240 -24.714  0.00  0.00    -0.491 OA
ATOM     13  C   UNL     1       0.737   3.734 -25.332  0.00  0.00    +0.277 C 
ENDBRANCH   6  12
TORSDOF 3
ENDMDL
MODEL 7
REMARK VINA RESULT:    -5.681      1.218      2.465
REMARK INTER + INTRA:          -6.953
REMARK INTER:                  -6.684
REMARK INTRA:                  -0.269
REMARK UNBOUND:                -0.276
REMARK  Name = ZINC000000392017
REMARK  5 active torsions:
REMARK  status: ('A' for Active; 'I' for Inactive)
REMARK    1  A    between atoms: C_1  and  O_2
REMARK    2  A    between atoms: O_2  and  C_3
REMARK    3  A    between atoms: C_6  and  C_7
REMARK    4  A    between atoms: C_11  and  O_12
REMARK    5  A    between atoms: O_12  and  C_13
REMARK                            x       y       z     vdW  Elec       q    Type
REMARK                         _______ _______ _______ _____ _____    ______ ____
ROOT
ATOM      1  C   UNL     1      -2.178   3.751 -23.551  0.00  0.00    +0.162 A 
ATOM      2  C   UNL     1      -1.073   3.447 -24.166  0.00  0.00    +0.050 A 
ATOM      3  C   UNL     1      -0.195   2.685 -23.587  0.00  0.00    +0.013 A 
ATOM      4  C   UNL     1      -0.420   2.225 -22.392  0.00  0.00    +0.001 A 
ATOM      5  C   UNL     1      -1.525   2.529 -21.776  0.00  0.00    +0.059 A 
ATOM      6  C   UNL     1      -2.403   3.291 -22.356  0.00  0.00    +0.162 A 
ENDROOT
BRANCH   4   7
ATOM      7  C   UNL     1       0.459   1.462 -21.812  0.00  0.00    +0.072 C 
ATOM      8  O   UNL     1       1.340   0.829 -22.526  0.00  0.00    -0.545 OA
ATOM      9  O   UNL     1       0.455   1.333 -20.519  0.00  0.00    -0.545 OA
ENDBRANCH   4   7
BRANCH   1  11
ATOM     10  C   UNL     1      -3.676   4.098 -25.195  0.00  0.00    +0.277 C 
ATOM     11  O   UNL     1      -3.056   4.514 -24.130  0.00  0.00    -0.491 OA
ENDBRANCH   1  11
BRANCH   6  12
ATOM     12  O   UNL     1      -3.507   3.595 -21.740  0.00  0.00    -0.491 OA
ATOM     13  C   UNL     1      -4.319   2.653 -21.362  0.00  0.00    +0.277 C 
ENDBRANCH   6  12
TORSDOF 3
ENDMDL
MODEL 8
REMARK VINA RESULT:    -5.639      2.011      4.378
REMARK INTER + INTRA:          -6.903
REMARK INTER:                  -6.656
REMARK INTRA:                  -0.247
REMARK UNBOUND:                -0.276
REMARK  Name = ZINC000000392017
REMARK  5 active torsions:
REMARK  status: ('A' for Active; 'I' for Inactive)
REMARK    1  A    between atoms: C_1  and  O_2
REMARK    2  A    between atoms: O_2  and  C_3
REMARK    3  A    between atoms: C_6  and  C_7
REMARK    4  A    between atoms: C_11  and  O_12
REMARK    5  A    between atoms: O_12  and  C_13
REMARK                            x       y       z     vdW  Elec       q    Type
REMARK                         _______ _______ _______ _____ _____    ______ ____
ROOT
ATOM      1  C   UNL     1       0.331   2.002 -22.649  0.00  0.00    +0.162 A 
ATOM      2  C   UNL     1      -0.372   1.308 -21.803  0.00  0.00    +0.050 A 
ATOM      3  C   UNL     1      -1.469   1.801 -21.310  0.00  0.00    +0.013 A 
ATOM      4  C   UNL     1      -1.865   2.988 -21.663  0.00  0.00    +0.001 A 
ATOM      5  C   UNL     1      -1.162   3.682 -22.509  0.00  0.00    +0.059 A 
ATOM      6  C   UNL     1      -0.065   3.189 -23.002  0.00  0.00    +0.162 A 
ENDROOT
BRANCH   4   7
ATOM      7  C   UNL     1      -2.962   3.481 -21.171  0.00  0.00    +0.072 C 
ATOM      8  O   UNL     1      -2.997   3.880 -19.934  0.00  0.00    -0.545 OA
ATOM      9  O   UNL     1      -4.024   3.574 -21.914  0.00  0.00    -0.545 OA
ENDBRANCH   4   7
BRANCH   1  11
ATOM     10  C   UNL     1       2.303   0.957 -22.354  0.00  0.00    +0.277 C 
ATOM     11  O   UNL     1       1.428   1.509 -23.141  0.00  0.00    -0.491 OA
ENDBRANCH   1  11
BRANCH   6  12
ATOM     12  O   UNL     1       0.637   3.883 -23.847  0.00  0.00    -0.491 OA
ATOM     13  C   UNL     1       1.192   4.996 -23.471  0.00  0.00    +0.277 C 
ENDBRANCH   6  12
TORSDOF 3
ENDMDL
MODEL 9
REMARK VINA RESULT:    -5.480      2.815      4.060
REMARK INTER + INTRA:          -6.716
REMARK INTER:                  -6.441
REMARK INTRA:                  -0.276
REMARK UNBOUND:                -0.276
REMARK  Name = ZINC000000392017
REMARK  5 active torsions:
REMARK  status: ('A' for Active; 'I' for Inactive)
REMARK    1  A    between atoms: C_1  and  O_2
REMARK    2  A    between atoms: O_2  and  C_3
REMARK    3  A    between atoms: C_6  and  C_7
REMARK    4  A    between atoms: C_11  and  O_12
REMARK    5  A    between atoms: O_12  and  C_13
REMARK                            x       y       z     vdW  Elec       q    Type
REMARK                         _______ _______ _______ _____ _____    ______ ____
ROOT
ATOM      1  C   UNL     1      -0.205   3.291 -24.164  0.00  0.00    +0.162 A 
ATOM      2  C   UNL     1       0.494   4.305 -24.582  0.00  0.00    +0.050 A 
ATOM      3  C   UNL     1       1.700   4.491 -24.134  0.00  0.00    +0.013 A 
ATOM      4  C   UNL     1       2.207   3.665 -23.268  0.00  0.00    +0.001 A 
ATOM      5  C   UNL     1       1.508   2.651 -22.851  0.00  0.00    +0.059 A 
ATOM      6  C   UNL     1       0.302   2.464 -23.299  0.00  0.00    +0.162 A 
ENDROOT
BRANCH   4   7
ATOM      7  C   UNL     1       3.413   3.852 -22.821  0.00  0.00    +0.072 C 
ATOM      8  O   UNL     1       3.895   3.066 -21.905  0.00  0.00    -0.545 OA
ATOM      9  O   UNL     1       4.137   4.825 -23.289  0.00  0.00    -0.545 OA
ENDBRANCH   4   7
BRANCH   1  11
ATOM     10  C   UNL     1      -2.313   4.026 -24.454  0.00  0.00    +0.277 C 
ATOM     11  O   UNL     1      -1.411   3.104 -24.612  0.00  0.00    -0.491 OA
ENDBRANCH   1  11
BRANCH   6  12
ATOM     12  O   UNL     1      -0.396   1.451 -22.881  0.00  0.00    -0.491 OA
ATOM     13  C   UNL     1      -0.646   1.313 -21.613  0.00  0.00    +0.277 C 
ENDBRANCH   6  12
TORSDOF 3
ENDMDL
