MODEL 1
REMARK VINA RESULT:    -7.876      0.000      0.000
REMARK INTER + INTRA:          -8.408
REMARK INTER:                  -8.336
REMARK INTRA:                  -0.072
REMARK UNBOUND:                -0.072
REMARK  Name = ZINC000000338391
REMARK  3 active torsions:
REMARK  status: ('A' for Active; 'I' for Inactive)
REMARK    1  A    between atoms: C_1  and  O_2
REMARK    2  A    between atoms: O_2  and  C_3
REMARK    3  A    between atoms: C_7  and  C_8
REMARK                            x       y       z     vdW  Elec       q    Type
REMARK                         _______ _______ _______ _____ _____    ______ ____
ROOT
ATOM      1  C   UNL     1      -0.001   2.535 -22.962  0.00  0.00    +0.124 A 
ATOM      2  C   UNL     1      -0.372   2.109 -21.791  0.00  0.00    +0.046 A 
ATOM      3  C   UNL     1      -1.618   2.194 -21.431  0.00  0.00    +0.015 A 
ATOM      4  C   UNL     1      -2.494   2.708 -22.243  0.00  0.00    +0.022 A 
ATOM      5  C   UNL     1      -3.741   2.794 -21.883  0.00  0.00    -0.015 A 
ATOM      6  C   UNL     1      -4.617   3.307 -22.695  0.00  0.00    +0.129 A 
ATOM      7  C   UNL     1      -4.248   3.734 -23.865  0.00  0.00    +0.356 A 
ATOM      8  O   UNL     1      -3.001   3.648 -24.225  0.00  0.00    -0.421 OA
ATOM      9  O   UNL     1      -5.124   4.247 -24.677  0.00  0.00    -0.244 OA
ATOM     10 CL   UNL     1      -5.863   3.393 -22.335  0.00  0.00    -0.076 Cl
ATOM     11  C   UNL     1      -4.110   2.366 -20.712  0.00  0.00    +0.046 C 
ATOM     12  C   UNL     1      -2.124   3.135 -23.414  0.00  0.00    +0.143 A 
ATOM     13  C   UNL     1      -0.878   3.049 -23.773  0.00  0.00    +0.092 A 
ENDROOT
BRANCH   1  15
ATOM     14  C   UNL     1       2.159   2.182 -22.438  0.00  0.00    +0.277 C 
ATOM     15  O   UNL     1       1.245   2.450 -23.322  0.00  0.00    -0.495 OA
ENDBRANCH   1  15
TORSDOF 1
ENDMDL
MODEL 2
REMARK VINA RESULT:    -7.795      1.717      2.609
REMARK INTER + INTRA:          -8.323
REMARK INTER:                  -8.251
REMARK INTRA:                  -0.071
REMARK UNBOUND:                -0.072
REMARK  Name = ZINC000000338391
REMARK  3 active torsions:
REMARK  status: ('A' for Active; 'I' for Inactive)
REMARK    1  A    between atoms: C_1  and  O_2
REMARK    2  A    between atoms: O_2  and  C_3
REMARK    3  A    between atoms: C_7  and  C_8
REMARK                            x       y       z     vdW  Elec       q    Type
REMARK                         _______ _______ _______ _____ _____    ______ ____
ROOT
ATOM      1  C   UNL     1      -0.173   2.985 -24.074  0.00  0.00    +0.124 A 
ATOM      2  C   UNL     1      -0.874   3.581 -24.993  0.00  0.00    +0.046 A 
ATOM      3  C   UNL     1      -2.147   3.775 -24.818  0.00  0.00    +0.015 A 
ATOM      4  C   UNL     1      -2.720   3.373 -23.723  0.00  0.00    +0.022 A 
ATOM      5  C   UNL     1      -3.994   3.567 -23.547  0.00  0.00    -0.015 A 
ATOM      6  C   UNL     1      -4.568   3.164 -22.452  0.00  0.00    +0.129 A 
ATOM      7  C   UNL     1      -3.869   2.568 -21.533  0.00  0.00    +0.356 A 
ATOM      8  O   UNL     1      -2.595   2.374 -21.709  0.00  0.00    -0.421 OA
ATOM      9  O   UNL     1      -4.442   2.166 -20.438  0.00  0.00    -0.244 OA
ATOM     10 CL   UNL     1      -5.841   3.358 -22.277  0.00  0.00    -0.076 Cl
ATOM     11  C   UNL     1      -4.693   4.163 -24.467  0.00  0.00    +0.046 C 
ATOM     12  C   UNL     1      -2.021   2.776 -22.803  0.00  0.00    +0.143 A 
ATOM     13  C   UNL     1      -0.748   2.582 -22.979  0.00  0.00    +0.092 A 
ENDROOT
BRANCH   1  15
ATOM     14  C   UNL     1       1.582   2.687 -25.451  0.00  0.00    +0.277 C 
ATOM     15  O   UNL     1       1.100   2.790 -24.249  0.00  0.00    -0.495 OA
ENDBRANCH   1  15
TORSDOF 1
ENDMDL
MODEL 3
REMARK VINA RESULT:    -7.711      1.535      2.390
REMARK INTER + INTRA:          -8.234
REMARK INTER:                  -8.162
REMARK INTRA:                  -0.071
REMARK UNBOUND:                -0.072
REMARK  Name = ZINC000000338391
REMARK  3 active torsions:
REMARK  status: ('A' for Active; 'I' for Inactive)
REMARK    1  A    between atoms: C_1  and  O_2
REMARK    2  A    between atoms: O_2  and  C_3
REMARK    3  A    between atoms: C_7  and  C_8
REMARK                            x       y       z     vdW  Elec       q    Type
REMARK                         _______ _______ _______ _____ _____    ______ ____
ROOT
ATOM      1  C   UNL     1      -0.190   1.960 -21.827  0.00  0.00    +0.124 A 
ATOM      2  C   UNL     1       0.109   2.256 -23.057  0.00  0.00    +0.046 A 
ATOM      3  C   UNL     1      -0.794   2.764 -23.842  0.00  0.00    +0.015 A 
ATOM      4  C   UNL     1      -1.997   2.976 -23.397  0.00  0.00    +0.022 A 
ATOM      5  C   UNL     1      -2.901   3.484 -24.181  0.00  0.00    -0.015 A 
ATOM      6  C   UNL     1      -4.104   3.695 -23.736  0.00  0.00    +0.129 A 
ATOM      7  C   UNL     1      -4.403   3.399 -22.506  0.00  0.00    +0.356 A 
ATOM      8  O   UNL     1      -3.499   2.891 -21.721  0.00  0.00    -0.421 OA
ATOM      9  O   UNL     1      -5.606   3.611 -22.061  0.00  0.00    -0.244 OA
ATOM     10 CL   UNL     1      -5.007   4.203 -24.521  0.00  0.00    -0.076 Cl
ATOM     11  C   UNL     1      -2.601   3.780 -25.411  0.00  0.00    +0.046 C 
ATOM     12  C   UNL     1      -2.297   2.680 -22.167  0.00  0.00    +0.143 A 
ATOM     13  C   UNL     1      -1.394   2.172 -21.382  0.00  0.00    +0.092 A 
ENDROOT
BRANCH   1  15
ATOM     14  C   UNL     1       1.962   1.456 -21.401  0.00  0.00    +0.277 C 
ATOM     15  O   UNL     1       0.713   1.452 -21.042  0.00  0.00    -0.495 OA
ENDBRANCH   1  15
TORSDOF 1
ENDMDL
MODEL 4
REMARK VINA RESULT:    -7.508      2.503      5.204
REMARK INTER + INTRA:          -8.018
REMARK INTER:                  -7.944
REMARK INTRA:                  -0.074
REMARK UNBOUND:                -0.072
REMARK  Name = ZINC000000338391
REMARK  3 active torsions:
REMARK  status: ('A' for Active; 'I' for Inactive)
REMARK    1  A    between atoms: C_1  and  O_2
REMARK    2  A    between atoms: O_2  and  C_3
REMARK    3  A    between atoms: C_7  and  C_8
REMARK                            x       y       z     vdW  Elec       q    Type
REMARK                         _______ _______ _______ _____ _____    ______ ____
ROOT
ATOM      1  C   UNL     1      -3.923   3.483 -23.231  0.00  0.00    +0.124 A 
ATOM      2  C   UNL     1      -3.266   3.981 -24.236  0.00  0.00    +0.046 A 
ATOM      3  C   UNL     1      -1.977   3.833 -24.309  0.00  0.00    +0.015 A 
ATOM      4  C   UNL     1      -1.344   3.185 -23.377  0.00  0.00    +0.022 A 
ATOM      5  C   UNL     1      -0.054   3.036 -23.449  0.00  0.00    -0.015 A 
ATOM      6  C   UNL     1       0.579   2.389 -22.517  0.00  0.00    +0.129 A 
ATOM      7  C   UNL     1      -0.077   1.890 -21.511  0.00  0.00    +0.356 A 
ATOM      8  O   UNL     1      -1.367   2.039 -21.439  0.00  0.00    -0.421 OA
ATOM      9  O   UNL     1       0.556   1.242 -20.579  0.00  0.00    -0.244 OA
ATOM     10 CL   UNL     1       1.868   2.240 -22.590  0.00  0.00    -0.076 Cl
ATOM     11  C   UNL     1       0.601   3.535 -24.455  0.00  0.00    +0.046 C 
ATOM     12  C   UNL     1      -2.000   2.686 -22.371  0.00  0.00    +0.143 A 
ATOM     13  C   UNL     1      -3.289   2.835 -22.298  0.00  0.00    +0.092 A 
ENDROOT
BRANCH   1  15
ATOM     14  C   UNL     1      -5.858   3.187 -22.120  0.00  0.00    +0.277 C 
ATOM     15  O   UNL     1      -5.212   3.631 -23.157  0.00  0.00    -0.495 OA
ENDBRANCH   1  15
TORSDOF 1
ENDMDL
MODEL 5
REMARK VINA RESULT:    -7.228      2.967      5.560
REMARK INTER + INTRA:          -7.722
REMARK INTER:                  -7.651
REMARK INTRA:                  -0.071
REMARK UNBOUND:                -0.072
REMARK  Name = ZINC000000338391
REMARK  3 active torsions:
REMARK  status: ('A' for Active; 'I' for Inactive)
REMARK    1  A    between atoms: C_1  and  O_2
REMARK    2  A    between atoms: O_2  and  C_3
REMARK    3  A    between atoms: C_7  and  C_8
REMARK                            x       y       z     vdW  Elec       q    Type
REMARK                         _______ _______ _______ _____ _____    ______ ____
ROOT
ATOM      1  C   UNL     1      -2.222   2.990 -21.764  0.00  0.00    +0.124 A 
ATOM      2  C   UNL     1      -1.909   4.137 -22.288  0.00  0.00    +0.046 A 
ATOM      3  C   UNL     1      -0.748   4.301 -22.850  0.00  0.00    +0.015 A 
ATOM      4  C   UNL     1       0.100   3.317 -22.887  0.00  0.00    +0.022 A 
ATOM      5  C   UNL     1       1.262   3.480 -23.449  0.00  0.00    -0.015 A 
ATOM      6  C   UNL     1       2.110   2.496 -23.486  0.00  0.00    +0.129 A 
ATOM      7  C   UNL     1       1.797   1.348 -22.962  0.00  0.00    +0.356 A 
ATOM      8  O   UNL     1       0.636   1.185 -22.400  0.00  0.00    -0.421 OA
ATOM      9  O   UNL     1       2.645   0.364 -22.999  0.00  0.00    -0.244 OA
ATOM     10 CL   UNL     1       3.270   2.659 -24.048  0.00  0.00    -0.076 Cl
ATOM     11  C   UNL     1       1.573   4.628 -23.973  0.00  0.00    +0.046 C 
ATOM     12  C   UNL     1      -0.212   2.169 -22.363  0.00  0.00    +0.143 A 
ATOM     13  C   UNL     1      -1.373   2.005 -21.801  0.00  0.00    +0.092 A 
ENDROOT
BRANCH   1  15
ATOM     14  C   UNL     1      -4.448   3.327 -21.753  0.00  0.00    +0.277 C 
ATOM     15  O   UNL     1      -3.383   2.825 -21.202  0.00  0.00    -0.495 OA
ENDBRANCH   1  15
TORSDOF 1
ENDMDL
MODEL 6
REMARK VINA RESULT:    -7.194      3.315      5.971
REMARK INTER + INTRA:          -7.686
REMARK INTER:                  -7.615
REMARK INTRA:                  -0.072
REMARK UNBOUND:                -0.072
REMARK  Name = ZINC000000338391
REMARK  3 active torsions:
REMARK  status: ('A' for Active; 'I' for Inactive)
REMARK    1  A    between atoms: C_1  and  O_2
REMARK    2  A    between atoms: O_2  and  C_3
REMARK    3  A    between atoms: C_7  and  C_8
REMARK                            x       y       z     vdW  Elec       q    Type
REMARK                         _______ _______ _______ _____ _____    ______ ____
ROOT
ATOM      1  C   UNL     1      -1.314   4.011 -23.375  0.00  0.00    +0.124 A 
ATOM      2  C   UNL     1      -0.493   5.016 -23.454  0.00  0.00    +0.046 A 
ATOM      3  C   UNL     1       0.789   4.817 -23.377  0.00  0.00    +0.015 A 
ATOM      4  C   UNL     1       1.251   3.613 -23.221  0.00  0.00    +0.022 A 
ATOM      5  C   UNL     1       2.534   3.414 -23.143  0.00  0.00    -0.015 A 
ATOM      6  C   UNL     1       2.997   2.209 -22.987  0.00  0.00    +0.129 A 
ATOM      7  C   UNL     1       2.177   1.203 -22.908  0.00  0.00    +0.356 A 
ATOM      8  O   UNL     1       0.894   1.402 -22.986  0.00  0.00    -0.421 OA
ATOM      9  O   UNL     1       2.640  -0.002 -22.752  0.00  0.00    -0.244 OA
ATOM     10 CL   UNL     1       4.279   2.010 -22.910  0.00  0.00    -0.076 Cl
ATOM     11  C   UNL     1       3.353   4.420 -23.222  0.00  0.00    +0.046 C 
ATOM     12  C   UNL     1       0.432   2.607 -23.142  0.00  0.00    +0.143 A 
ATOM     13  C   UNL     1      -0.850   2.805 -23.219  0.00  0.00    +0.092 A 
ENDROOT
BRANCH   1  15
ATOM     14  C   UNL     1      -3.155   4.398 -24.611  0.00  0.00    +0.277 C 
ATOM     15  O   UNL     1      -2.596   4.209 -23.453  0.00  0.00    -0.495 OA
ENDBRANCH   1  15
TORSDOF 1
ENDMDL
MODEL 7
REMARK VINA RESULT:    -6.741      2.725      4.245
REMARK INTER + INTRA:          -7.206
REMARK INTER:                  -7.137
REMARK INTRA:                  -0.070
REMARK UNBOUND:                -0.072
REMARK  Name = ZINC000000338391
REMARK  3 active torsions:
REMARK  status: ('A' for Active; 'I' for Inactive)
REMARK    1  A    between atoms: C_1  and  O_2
REMARK    2  A    between atoms: O_2  and  C_3
REMARK    3  A    between atoms: C_7  and  C_8
REMARK                            x       y       z     vdW  Elec       q    Type
REMARK                         _______ _______ _______ _____ _____    ______ ____
ROOT
ATOM      1  C   UNL     1       2.721   1.791 -21.682  0.00  0.00    +0.124 A 
ATOM      2  C   UNL     1       3.305   2.478 -22.618  0.00  0.00    +0.046 A 
ATOM      3  C   UNL     1       2.602   2.999 -23.579  0.00  0.00    +0.015 A 
ATOM      4  C   UNL     1       1.313   2.833 -23.604  0.00  0.00    +0.022 A 
ATOM      5  C   UNL     1       0.608   3.354 -24.565  0.00  0.00    -0.015 A 
ATOM      6  C   UNL     1      -0.681   3.188 -24.589  0.00  0.00    +0.129 A 
ATOM      7  C   UNL     1      -1.266   2.502 -23.654  0.00  0.00    +0.356 A 
ATOM      8  O   UNL     1      -0.561   1.981 -22.693  0.00  0.00    -0.421 OA
ATOM      9  O   UNL     1      -2.555   2.336 -23.678  0.00  0.00    -0.244 OA
ATOM     10 CL   UNL     1      -1.384   3.709 -25.550  0.00  0.00    -0.076 Cl
ATOM     11  C   UNL     1       1.194   4.041 -25.500  0.00  0.00    +0.046 C 
ATOM     12  C   UNL     1       0.728   2.146 -22.668  0.00  0.00    +0.143 A 
ATOM     13  C   UNL     1       1.431   1.626 -21.707  0.00  0.00    +0.092 A 
ENDROOT
BRANCH   1  15
ATOM     14  C   UNL     1       4.378   0.431 -20.996  0.00  0.00    +0.277 C 
ATOM     15  O   UNL     1       3.424   1.270 -20.721  0.00  0.00    -0.495 OA
ENDBRANCH   1  15
TORSDOF 1
ENDMDL
MODEL 8
REMARK VINA RESULT:    -6.732      3.656      6.721
REMARK INTER + INTRA:          -7.197
REMARK INTER:                  -7.127
REMARK INTRA:                  -0.070
REMARK UNBOUND:                -0.072
REMARK  Name = ZINC000000338391
REMARK  3 active torsions:
REMARK  status: ('A' for Active; 'I' for Inactive)
REMARK    1  A    between atoms: C_1  and  O_2
REMARK    2  A    between atoms: O_2  and  C_3
REMARK    3  A    between atoms: C_7  and  C_8
REMARK                            x       y       z     vdW  Elec       q    Type
REMARK                         _______ _______ _______ _____ _____    ______ ____
ROOT
ATOM      1  C   UNL     1      -0.563   2.283 -22.075  0.00  0.00    +0.124 A 
ATOM      2  C   UNL     1      -0.099   3.143 -22.933  0.00  0.00    +0.046 A 
ATOM      3  C   UNL     1       1.180   3.220 -23.149  0.00  0.00    +0.015 A 
ATOM      4  C   UNL     1       1.996   2.437 -22.508  0.00  0.00    +0.022 A 
ATOM      5  C   UNL     1       3.276   2.514 -22.724  0.00  0.00    -0.015 A 
ATOM      6  C   UNL     1       4.092   1.731 -22.083  0.00  0.00    +0.129 A 
ATOM      7  C   UNL     1       3.628   0.871 -21.225  0.00  0.00    +0.356 A 
ATOM      8  O   UNL     1       2.348   0.794 -21.009  0.00  0.00    -0.421 OA
ATOM      9  O   UNL     1       4.444   0.088 -20.584  0.00  0.00    -0.244 OA
ATOM     10 CL   UNL     1       5.371   1.808 -22.299  0.00  0.00    -0.076 Cl
ATOM     11  C   UNL     1       3.739   3.374 -23.582  0.00  0.00    +0.046 C 
ATOM     12  C   UNL     1       1.533   1.577 -21.650  0.00  0.00    +0.143 A 
ATOM     13  C   UNL     1       0.253   1.500 -21.434  0.00  0.00    +0.092 A 
ENDROOT
BRANCH   1  15
ATOM     14  C   UNL     1      -2.481   3.226 -21.369  0.00  0.00    +0.277 C 
ATOM     15  O   UNL     1      -1.843   2.205 -21.858  0.00  0.00    -0.495 OA
ENDBRANCH   1  15
TORSDOF 1
ENDMDL
MODEL 9
REMARK VINA RESULT:    -6.703      1.901      2.790
REMARK INTER + INTRA:          -7.166
REMARK INTER:                  -7.094
REMARK INTRA:                  -0.072
REMARK UNBOUND:                -0.072
REMARK  Name = ZINC000000338391
REMARK  3 active torsions:
REMARK  status: ('A' for Active; 'I' for Inactive)
REMARK    1  A    between atoms: C_1  and  O_2
REMARK    2  A    between atoms: O_2  and  C_3
REMARK    3  A    between atoms: C_7  and  C_8
REMARK                            x       y       z     vdW  Elec       q    Type
REMARK                         _______ _______ _______ _____ _____    ______ ____
ROOT
ATOM      1  C   UNL     1       2.447   1.463 -22.585  0.00  0.00    +0.124 A 
ATOM      2  C   UNL     1       1.771   1.283 -21.488  0.00  0.00    +0.046 A 
ATOM      3  C   UNL     1       0.524   1.643 -21.426  0.00  0.00    +0.015 A 
ATOM      4  C   UNL     1      -0.048   2.184 -22.460  0.00  0.00    +0.022 A 
ATOM      5  C   UNL     1      -1.296   2.545 -22.397  0.00  0.00    -0.015 A 
ATOM      6  C   UNL     1      -1.869   3.086 -23.431  0.00  0.00    +0.129 A 
ATOM      7  C   UNL     1      -1.194   3.266 -24.528  0.00  0.00    +0.356 A 
ATOM      8  O   UNL     1       0.053   2.905 -24.590  0.00  0.00    -0.421 OA
ATOM      9  O   UNL     1      -1.767   3.807 -25.562  0.00  0.00    -0.244 OA
ATOM     10 CL   UNL     1      -3.116   3.446 -23.368  0.00  0.00    -0.076 Cl
ATOM     11  C   UNL     1      -1.970   2.364 -21.300  0.00  0.00    +0.046 C 
ATOM     12  C   UNL     1       0.626   2.364 -23.556  0.00  0.00    +0.143 A 
ATOM     13  C   UNL     1       1.873   2.004 -23.619  0.00  0.00    +0.092 A 
ENDROOT
BRANCH   1  15
ATOM     14  C   UNL     1       4.318   0.731 -21.570  0.00  0.00    +0.277 C 
ATOM     15  O   UNL     1       3.694   1.102 -22.648  0.00  0.00    -0.495 OA
ENDBRANCH   1  15
TORSDOF 1
ENDMDL
