MODEL 1
REMARK VINA RESULT:    -9.979      0.000      0.000
REMARK INTER + INTRA:         -13.598
REMARK INTER:                 -12.713
REMARK INTRA:                  -0.885
REMARK UNBOUND:                -0.410
REMARK  Name = ZINC000004257486
REMARK  7 active torsions:
REMARK  status: ('A' for Active; 'I' for Inactive)
REMARK    1  A    between atoms: O5*_1  and  C5*_2
REMARK    2  A    between atoms: C5*_2  and  C4*_3
REMARK    3  A    between atoms: C1*_5  and  N_6
REMARK    4  A    between atoms: N_11  and  C_12
REMARK    5  A    between atoms: C_12  and  C_13
REMARK    6  A    between atoms: C2*_23  and  O2*_24
REMARK    7  A    between atoms: C3*_25  and  O3*_26
REMARK                            x       y       z     vdW  Elec       q    Type
REMARK                         _______ _______ _______ _____ _____    ______ ____
ROOT
ATOM      1  N   UNL     1       3.226   2.377 -23.024  0.00  0.00    -0.286 N 
ATOM      2  C   UNL     1       2.736   1.174 -23.045  0.00  0.00    +0.203 A 
ATOM      3  N   UNL     1       1.461   1.263 -23.288  0.00  0.00    -0.231 NA
ATOM      4  C   UNL     1       1.164   2.522 -23.417  0.00  0.00    +0.147 A 
ATOM      5  C   UNL     1       0.042   3.131 -23.663  0.00  0.00    +0.150 A 
ATOM      6  N   UNL     1       0.010   4.428 -23.745  0.00  0.00    -0.219 NA
ATOM      7  C   UNL     1       1.100   5.117 -23.581  0.00  0.00    +0.225 A 
ATOM      8  N   UNL     1       2.223   4.508 -23.336  0.00  0.00    -0.216 NA
ATOM      9  N   UNL     1      -1.049   2.443 -23.826  0.00  0.00    -0.323 N 
ATOM     10  H   UNL     1      -1.024   1.460 -23.764  0.00  0.00    +0.148 HD
ATOM     11  C   UNL     1       2.255   3.211 -23.254  0.00  0.00    +0.167 A 
ENDROOT
BRANCH   1  14
ATOM     12  C4* UNL     1       6.473   3.250 -23.122  0.00  0.00    +0.177 C 
ATOM     13  O4* UNL     1       5.348   2.994 -23.720  0.00  0.00    -0.346 OA
ATOM     14  C1* UNL     1       4.468   2.693 -22.810  0.00  0.00    +0.253 C 
ATOM     15  C2* UNL     1       5.051   2.763 -21.650  0.00  0.00    +0.195 C 
ATOM     16  C3* UNL     1       6.290   3.108 -21.843  0.00  0.00    +0.178 C 
BRANCH  15  17
ATOM     17  O2* UNL     1       4.493   2.531 -20.500  0.00  0.00    -0.385 OA
ATOM     18  H2* UNL     1       4.026   3.326 -20.200  0.00  0.00    +0.210 HD
ENDBRANCH  15  17
BRANCH  16  19
ATOM     19  O3* UNL     1       7.188   3.280 -20.919  0.00  0.00    -0.386 OA
ATOM     20  H3* UNL     1       7.635   2.437 -20.743  0.00  0.00    +0.210 HD
ENDBRANCH  16  19
BRANCH  12  21
ATOM     21  C5* UNL     1       7.586   3.589 -23.701  0.00  0.00    +0.190 C 
BRANCH  21  22
ATOM     22  O5* UNL     1       8.649   2.858 -23.544  0.00  0.00    -0.392 OA
ATOM     23  H5* UNL     1       8.636   2.455 -22.662  0.00  0.00    +0.210 HD
ENDBRANCH  21  22
ENDBRANCH  12  21
ENDBRANCH   1  14
BRANCH   9  24
ATOM     24  C   UNL     1      -2.171   3.051 -24.071  0.00  0.00    +0.138 C 
BRANCH  24  25
ATOM     25  C   UNL     1      -3.128   3.029 -23.191  0.00  0.00    -0.030 A 
ATOM     26  C   UNL     1      -2.912   2.534 -22.009  0.00  0.00    +0.005 A 
ATOM     27  C   UNL     1      -3.869   2.513 -21.129  0.00  0.00    +0.000 A 
ATOM     28  C   UNL     1      -5.041   2.987 -21.432  0.00  0.00    +0.000 A 
ATOM     29  C   UNL     1      -5.257   3.482 -22.615  0.00  0.00    +0.000 A 
ATOM     30  C   UNL     1      -4.300   3.503 -23.494  0.00  0.00    +0.005 A 
ENDBRANCH  24  25
ENDBRANCH   9  24
TORSDOF 7
ENDMDL
MODEL 2
REMARK VINA RESULT:    -9.715      1.267      2.492
REMARK INTER + INTRA:         -13.249
REMARK INTER:                 -12.582
REMARK INTRA:                  -0.667
REMARK UNBOUND:                -0.410
REMARK  Name = ZINC000004257486
REMARK  7 active torsions:
REMARK  status: ('A' for Active; 'I' for Inactive)
REMARK    1  A    between atoms: O5*_1  and  C5*_2
REMARK    2  A    between atoms: C5*_2  and  C4*_3
REMARK    3  A    between atoms: C1*_5  and  N_6
REMARK    4  A    between atoms: N_11  and  C_12
REMARK    5  A    between atoms: C_12  and  C_13
REMARK    6  A    between atoms: C2*_23  and  O2*_24
REMARK    7  A    between atoms: C3*_25  and  O3*_26
REMARK                            x       y       z     vdW  Elec       q    Type
REMARK                         _______ _______ _______ _____ _____    ______ ____
ROOT
ATOM      1  N   UNL     1       3.306   4.016 -22.898  0.00  0.00    -0.286 N 
ATOM      2  C   UNL     1       2.672   5.080 -23.294  0.00  0.00    +0.203 A 
ATOM      3  N   UNL     1       1.401   4.806 -23.317  0.00  0.00    -0.231 NA
ATOM      4  C   UNL     1       1.250   3.572 -22.935  0.00  0.00    +0.147 A 
ATOM      5  C   UNL     1       0.192   2.830 -22.790  0.00  0.00    +0.150 A 
ATOM      6  N   UNL     1       0.311   1.600 -22.386  0.00  0.00    -0.219 NA
ATOM      7  C   UNL     1       1.488   1.112 -22.126  0.00  0.00    +0.225 A 
ATOM      8  N   UNL     1       2.546   1.855 -22.272  0.00  0.00    -0.216 NA
ATOM      9  N   UNL     1      -0.985   3.318 -23.049  0.00  0.00    -0.323 N 
ATOM     10  H   UNL     1      -1.075   4.250 -23.356  0.00  0.00    +0.148 HD
ATOM     11  C   UNL     1       2.426   3.084 -22.676  0.00  0.00    +0.167 A 
ENDROOT
BRANCH   1  14
ATOM     12  C4* UNL     1       6.558   4.186 -22.056  0.00  0.00    +0.177 C 
ATOM     13  O4* UNL     1       5.326   4.575 -21.912  0.00  0.00    -0.346 OA
ATOM     14  C1* UNL     1       4.592   3.903 -22.749  0.00  0.00    +0.253 C 
ATOM     15  C2* UNL     1       5.370   3.100 -23.410  0.00  0.00    +0.195 C 
ATOM     16  C3* UNL     1       6.586   3.274 -22.982  0.00  0.00    +0.178 C 
BRANCH  15  17
ATOM     17  O2* UNL     1       4.999   2.267 -24.337  0.00  0.00    -0.385 OA
ATOM     18  H2* UNL     1       5.728   2.135 -24.963  0.00  0.00    +0.210 HD
ENDBRANCH  15  17
BRANCH  16  19
ATOM     19  O3* UNL     1       7.643   2.648 -23.406  0.00  0.00    -0.386 OA
ATOM     20  H3* UNL     1       8.145   2.313 -22.647  0.00  0.00    +0.210 HD
ENDBRANCH  16  19
BRANCH  12  21
ATOM     21  C5* UNL     1       7.582   4.631 -21.391  0.00  0.00    +0.190 C 
BRANCH  21  22
ATOM     22  O5* UNL     1       7.648   4.456 -20.105  0.00  0.00    -0.392 OA
ATOM     23  H5* UNL     1       8.566   4.279 -19.849  0.00  0.00    +0.210 HD
ENDBRANCH  21  22
ENDBRANCH  12  21
ENDBRANCH   1  14
BRANCH   9  24
ATOM     24  C   UNL     1      -2.042   2.576 -22.904  0.00  0.00    +0.138 C 
BRANCH  24  25
ATOM     25  C   UNL     1      -3.214   3.047 -23.214  0.00  0.00    -0.030 A 
ATOM     26  C   UNL     1      -3.432   3.514 -24.407  0.00  0.00    +0.005 A 
ATOM     27  C   UNL     1      -4.603   3.985 -24.717  0.00  0.00    +0.000 A 
ATOM     28  C   UNL     1      -5.557   3.988 -23.834  0.00  0.00    +0.000 A 
ATOM     29  C   UNL     1      -5.340   3.520 -22.640  0.00  0.00    +0.000 A 
ATOM     30  C   UNL     1      -4.168   3.050 -22.330  0.00  0.00    +0.005 A 
ENDBRANCH  24  25
ENDBRANCH   9  24
TORSDOF 7
ENDMDL
MODEL 3
REMARK VINA RESULT:    -8.977      1.271      2.258
REMARK INTER + INTRA:         -12.274
REMARK INTER:                 -12.348
REMARK INTRA:                   0.074
REMARK UNBOUND:                -0.410
REMARK  Name = ZINC000004257486
REMARK  7 active torsions:
REMARK  status: ('A' for Active; 'I' for Inactive)
REMARK    1  A    between atoms: O5*_1  and  C5*_2
REMARK    2  A    between atoms: C5*_2  and  C4*_3
REMARK    3  A    between atoms: C1*_5  and  N_6
REMARK    4  A    between atoms: N_11  and  C_12
REMARK    5  A    between atoms: C_12  and  C_13
REMARK    6  A    between atoms: C2*_23  and  O2*_24
REMARK    7  A    between atoms: C3*_25  and  O3*_26
REMARK                            x       y       z     vdW  Elec       q    Type
REMARK                         _______ _______ _______ _____ _____    ______ ____
ROOT
ATOM      1  N   UNL     1       2.539   2.475 -22.548  0.00  0.00    -0.286 N 
ATOM      2  C   UNL     1       2.091   1.298 -22.226  0.00  0.00    +0.203 A 
ATOM      3  N   UNL     1       0.793   1.362 -22.178  0.00  0.00    -0.231 NA
ATOM      4  C   UNL     1       0.439   2.578 -22.471  0.00  0.00    +0.147 A 
ATOM      5  C   UNL     1      -0.726   3.148 -22.560  0.00  0.00    +0.150 A 
ATOM      6  N   UNL     1      -0.812   4.406 -22.876  0.00  0.00    -0.219 NA
ATOM      7  C   UNL     1       0.267   5.094 -23.104  0.00  0.00    +0.225 A 
ATOM      8  N   UNL     1       1.433   4.524 -23.016  0.00  0.00    -0.216 NA
ATOM      9  N   UNL     1      -1.805   2.460 -22.332  0.00  0.00    -0.323 N 
ATOM     10  H   UNL     1      -1.740   1.507 -22.092  0.00  0.00    +0.148 HD
ATOM     11  C   UNL     1       1.518   3.266 -22.699  0.00  0.00    +0.167 A 
ENDROOT
BRANCH   1  14
ATOM     12  C4* UNL     1       5.710   3.575 -22.320  0.00  0.00    +0.177 C 
ATOM     13  O4* UNL     1       4.521   3.425 -21.816  0.00  0.00    -0.346 OA
ATOM     14  C1* UNL     1       3.788   2.804 -22.692  0.00  0.00    +0.253 C 
ATOM     15  C2* UNL     1       4.524   2.571 -23.738  0.00  0.00    +0.195 C 
ATOM     16  C3* UNL     1       5.712   3.047 -23.508  0.00  0.00    +0.178 C 
BRANCH  15  17
ATOM     17  O2* UNL     1       4.140   1.967 -24.823  0.00  0.00    -0.385 OA
ATOM     18  H2* UNL     1       3.180   1.833 -24.796  0.00  0.00    +0.210 HD
ENDBRANCH  15  17
BRANCH  16  19
ATOM     19  O3* UNL     1       6.723   3.003 -24.323  0.00  0.00    -0.386 OA
ATOM     20  H3* UNL     1       7.086   3.896 -24.436  0.00  0.00    +0.210 HD
ENDBRANCH  16  19
BRANCH  12  21
ATOM     21  C5* UNL     1       6.719   4.151 -21.739  0.00  0.00    +0.190 C 
BRANCH  21  22
ATOM     22  O5* UNL     1       7.300   3.578 -20.726  0.00  0.00    -0.392 OA
ATOM     23  H5* UNL     1       8.259   3.562 -20.870  0.00  0.00    +0.210 HD
ENDBRANCH  21  22
ENDBRANCH  12  21
ENDBRANCH   1  14
BRANCH   9  24
ATOM     24  C   UNL     1      -2.970   3.030 -22.420  0.00  0.00    +0.138 C 
BRANCH  24  25
ATOM     25  C   UNL     1      -3.534   3.179 -23.582  0.00  0.00    -0.030 A 
ATOM     26  C   UNL     1      -2.937   2.751 -24.654  0.00  0.00    +0.005 A 
ATOM     27  C   UNL     1      -3.501   2.900 -25.816  0.00  0.00    +0.000 A 
ATOM     28  C   UNL     1      -4.663   3.478 -25.905  0.00  0.00    +0.000 A 
ATOM     29  C   UNL     1      -5.260   3.906 -24.832  0.00  0.00    +0.000 A 
ATOM     30  C   UNL     1      -4.696   3.757 -23.671  0.00  0.00    +0.005 A 
ENDBRANCH  24  25
ENDBRANCH   9  24
TORSDOF 7
ENDMDL
MODEL 4
REMARK VINA RESULT:    -8.888      1.262      2.376
REMARK INTER + INTRA:         -12.157
REMARK INTER:                 -11.393
REMARK INTRA:                  -0.764
REMARK UNBOUND:                -0.410
REMARK  Name = ZINC000004257486
REMARK  7 active torsions:
REMARK  status: ('A' for Active; 'I' for Inactive)
REMARK    1  A    between atoms: O5*_1  and  C5*_2
REMARK    2  A    between atoms: C5*_2  and  C4*_3
REMARK    3  A    between atoms: C1*_5  and  N_6
REMARK    4  A    between atoms: N_11  and  C_12
REMARK    5  A    between atoms: C_12  and  C_13
REMARK    6  A    between atoms: C2*_23  and  O2*_24
REMARK    7  A    between atoms: C3*_25  and  O3*_26
REMARK                            x       y       z     vdW  Elec       q    Type
REMARK                         _______ _______ _______ _____ _____    ______ ____
ROOT
ATOM      1  N   UNL     1       4.219   3.839 -23.181  0.00  0.00    -0.286 N 
ATOM      2  C   UNL     1       3.483   4.908 -23.243  0.00  0.00    +0.203 A 
ATOM      3  N   UNL     1       2.240   4.549 -23.107  0.00  0.00    -0.231 NA
ATOM      4  C   UNL     1       2.209   3.257 -22.962  0.00  0.00    +0.147 A 
ATOM      5  C   UNL     1       1.225   2.424 -22.794  0.00  0.00    +0.150 A 
ATOM      6  N   UNL     1       1.464   1.152 -22.671  0.00  0.00    -0.219 NA
ATOM      7  C   UNL     1       2.687   0.713 -22.717  0.00  0.00    +0.225 A 
ATOM      8  N   UNL     1       3.671   1.547 -22.885  0.00  0.00    -0.216 NA
ATOM      9  N   UNL     1       0.002   2.863 -22.748  0.00  0.00    -0.323 N 
ATOM     10  H   UNL     1      -0.179   3.827 -22.841  0.00  0.00    +0.148 HD
ATOM     11  C   UNL     1       3.432   2.818 -23.008  0.00  0.00    +0.167 A 
ENDROOT
BRANCH   1  14
ATOM     12  C4* UNL     1       7.456   3.529 -24.040  0.00  0.00    +0.177 C 
ATOM     13  O4* UNL     1       6.192   3.446 -24.330  0.00  0.00    -0.346 OA
ATOM     14  C1* UNL     1       5.514   3.796 -23.277  0.00  0.00    +0.253 C 
ATOM     15  C2* UNL     1       6.360   4.096 -22.337  0.00  0.00    +0.195 C 
ATOM     16  C3* UNL     1       7.561   3.931 -22.808  0.00  0.00    +0.178 C 
BRANCH  15  17
ATOM     17  O2* UNL     1       6.059   4.491 -21.135  0.00  0.00    -0.385 OA
ATOM     18  H2* UNL     1       6.136   5.456 -21.084  0.00  0.00    +0.210 HD
ENDBRANCH  15  17
BRANCH  16  19
ATOM     19  O3* UNL     1       8.670   4.133 -22.162  0.00  0.00    -0.386 OA
ATOM     20  H3* UNL     1       9.422   3.952 -22.747  0.00  0.00    +0.210 HD
ENDBRANCH  16  19
BRANCH  12  21
ATOM     21  C5* UNL     1       8.443   3.258 -24.842  0.00  0.00    +0.190 C 
BRANCH  21  22
ATOM     22  O5* UNL     1       8.434   3.713 -26.060  0.00  0.00    -0.392 OA
ATOM     23  H5* UNL     1       7.816   3.192 -26.594  0.00  0.00    +0.210 HD
ENDBRANCH  21  22
ENDBRANCH  12  21
ENDBRANCH   1  14
BRANCH   9  24
ATOM     24  C   UNL     1      -0.981   2.030 -22.580  0.00  0.00    +0.138 C 
BRANCH  24  25
ATOM     25  C   UNL     1      -2.185   2.478 -22.375  0.00  0.00    -0.030 A 
ATOM     26  C   UNL     1      -2.889   2.928 -23.371  0.00  0.00    +0.005 A 
ATOM     27  C   UNL     1      -4.092   3.375 -23.166  0.00  0.00    +0.000 A 
ATOM     28  C   UNL     1      -4.591   3.374 -21.966  0.00  0.00    +0.000 A 
ATOM     29  C   UNL     1      -3.886   2.924 -20.969  0.00  0.00    +0.000 A 
ATOM     30  C   UNL     1      -2.683   2.476 -21.174  0.00  0.00    +0.005 A 
ENDBRANCH  24  25
ENDBRANCH   9  24
TORSDOF 7
ENDMDL
MODEL 5
REMARK VINA RESULT:    -8.825      3.588      8.670
REMARK INTER + INTRA:         -12.073
REMARK INTER:                 -11.070
REMARK INTRA:                  -1.003
REMARK UNBOUND:                -0.410
REMARK  Name = ZINC000004257486
REMARK  7 active torsions:
REMARK  status: ('A' for Active; 'I' for Inactive)
REMARK    1  A    between atoms: O5*_1  and  C5*_2
REMARK    2  A    between atoms: C5*_2  and  C4*_3
REMARK    3  A    between atoms: C1*_5  and  N_6
REMARK    4  A    between atoms: N_11  and  C_12
REMARK    5  A    between atoms: C_12  and  C_13
REMARK    6  A    between atoms: C2*_23  and  O2*_24
REMARK    7  A    between atoms: C3*_25  and  O3*_26
REMARK                            x       y       z     vdW  Elec       q    Type
REMARK                         _______ _______ _______ _____ _____    ______ ____
ROOT
ATOM      1  N   UNL     1      -0.072   4.005 -23.590  0.00  0.00    -0.286 N 
ATOM      2  C   UNL     1       0.494   5.174 -23.626  0.00  0.00    +0.203 A 
ATOM      3  N   UNL     1       1.744   5.027 -23.299  0.00  0.00    -0.231 NA
ATOM      4  C   UNL     1       1.950   3.766 -23.061  0.00  0.00    +0.147 A 
ATOM      5  C   UNL     1       3.015   3.110 -22.703  0.00  0.00    +0.150 A 
ATOM      6  N   UNL     1       2.957   1.824 -22.525  0.00  0.00    -0.219 NA
ATOM      7  C   UNL     1       1.835   1.192 -22.704  0.00  0.00    +0.225 A 
ATOM      8  N   UNL     1       0.770   1.848 -23.062  0.00  0.00    -0.216 NA
ATOM      9  N   UNL     1       4.137   3.742 -22.523  0.00  0.00    -0.323 N 
ATOM     10  H   UNL     1       4.180   4.717 -22.658  0.00  0.00    +0.148 HD
ATOM     11  C   UNL     1       0.828   3.134 -23.240  0.00  0.00    +0.167 A 
ENDROOT
BRANCH   1  14
ATOM     12  C4* UNL     1      -3.390   3.453 -23.639  0.00  0.00    +0.177 C 
ATOM     13  O4* UNL     1      -2.298   3.754 -23.001  0.00  0.00    -0.346 OA
ATOM     14  C1* UNL     1      -1.318   3.750 -23.856  0.00  0.00    +0.253 C 
ATOM     15  C2* UNL     1      -1.805   3.447 -25.022  0.00  0.00    +0.195 C 
ATOM     16  C3* UNL     1      -3.085   3.263 -24.889  0.00  0.00    +0.178 C 
BRANCH  15  17
ATOM     17  O2* UNL     1      -1.129   3.345 -26.128  0.00  0.00    -0.385 OA
ATOM     18  H2* UNL     1      -1.528   3.915 -26.804  0.00  0.00    +0.210 HD
ENDBRANCH  15  17
BRANCH  16  19
ATOM     19  O3* UNL     1      -3.914   2.945 -25.838  0.00  0.00    -0.386 OA
ATOM     20  H3* UNL     1      -4.417   2.158 -25.576  0.00  0.00    +0.210 HD
ENDBRANCH  16  19
BRANCH  12  21
ATOM     21  C5* UNL     1      -4.577   3.358 -23.120  0.00  0.00    +0.190 C 
BRANCH  21  22
ATOM     22  O5* UNL     1      -5.552   4.077 -23.592  0.00  0.00    -0.392 OA
ATOM     23  H5* UNL     1      -5.467   4.988 -23.271  0.00  0.00    +0.210 HD
ENDBRANCH  21  22
ENDBRANCH  12  21
ENDBRANCH   1  14
BRANCH   9  24
ATOM     24  C   UNL     1       5.201   3.087 -22.166  0.00  0.00    +0.138 C 
BRANCH  24  25
ATOM     25  C   UNL     1       6.351   3.692 -22.118  0.00  0.00    -0.030 A 
ATOM     26  C   UNL     1       7.048   3.849 -23.204  0.00  0.00    +0.005 A 
ATOM     27  C   UNL     1       8.198   4.453 -23.156  0.00  0.00    +0.000 A 
ATOM     28  C   UNL     1       8.650   4.901 -22.022  0.00  0.00    +0.000 A 
ATOM     29  C   UNL     1       7.953   4.745 -20.936  0.00  0.00    +0.000 A 
ATOM     30  C   UNL     1       6.803   4.140 -20.984  0.00  0.00    +0.005 A 
ENDBRANCH  24  25
ENDBRANCH   9  24
TORSDOF 7
ENDMDL
MODEL 6
REMARK VINA RESULT:    -8.748      3.877      8.147
REMARK INTER + INTRA:         -11.970
REMARK INTER:                 -11.650
REMARK INTRA:                  -0.320
REMARK UNBOUND:                -0.410
REMARK  Name = ZINC000004257486
REMARK  7 active torsions:
REMARK  status: ('A' for Active; 'I' for Inactive)
REMARK    1  A    between atoms: O5*_1  and  C5*_2
REMARK    2  A    between atoms: C5*_2  and  C4*_3
REMARK    3  A    between atoms: C1*_5  and  N_6
REMARK    4  A    between atoms: N_11  and  C_12
REMARK    5  A    between atoms: C_12  and  C_13
REMARK    6  A    between atoms: C2*_23  and  O2*_24
REMARK    7  A    between atoms: C3*_25  and  O3*_26
REMARK                            x       y       z     vdW  Elec       q    Type
REMARK                         _______ _______ _______ _____ _____    ______ ____
ROOT
ATOM      1  N   UNL     1      -1.147   2.531 -22.887  0.00  0.00    -0.286 N 
ATOM      2  C   UNL     1      -0.711   1.540 -22.168  0.00  0.00    +0.203 A 
ATOM      3  N   UNL     1       0.582   1.482 -22.305  0.00  0.00    -0.231 NA
ATOM      4  C   UNL     1       0.943   2.438 -23.108  0.00  0.00    +0.147 A 
ATOM      5  C   UNL     1       2.107   2.803 -23.559  0.00  0.00    +0.150 A 
ATOM      6  N   UNL     1       2.203   3.815 -24.369  0.00  0.00    -0.219 NA
ATOM      7  C   UNL     1       1.135   4.463 -24.729  0.00  0.00    +0.225 A 
ATOM      8  N   UNL     1      -0.029   4.098 -24.278  0.00  0.00    -0.216 NA
ATOM      9  N   UNL     1       3.175   2.155 -23.199  0.00  0.00    -0.323 N 
ATOM     10  H   UNL     1       3.102   1.388 -22.585  0.00  0.00    +0.148 HD
ATOM     11  C   UNL     1      -0.125   3.086 -23.468  0.00  0.00    +0.167 A 
ENDROOT
BRANCH   1  14
ATOM     12  C4* UNL     1      -4.229   3.490 -23.833  0.00  0.00    +0.177 C 
ATOM     13  O4* UNL     1      -3.008   3.147 -24.120  0.00  0.00    -0.346 OA
ATOM     14  C1* UNL     1      -2.387   2.902 -23.005  0.00  0.00    +0.253 C 
ATOM     15  C2* UNL     1      -3.224   3.093 -22.029  0.00  0.00    +0.195 C 
ATOM     16  C3* UNL     1      -4.363   3.456 -22.541  0.00  0.00    +0.178 C 
BRANCH  15  17
ATOM     17  O2* UNL     1      -2.967   2.946 -20.763  0.00  0.00    -0.385 OA
ATOM     18  H2* UNL     1      -2.737   3.806 -20.378  0.00  0.00    +0.210 HD
ENDBRANCH  15  17
BRANCH  16  19
ATOM     19  O3* UNL     1      -5.444   3.737 -21.877  0.00  0.00    -0.386 OA
ATOM     20  H3* UNL     1      -5.608   4.692 -21.916  0.00  0.00    +0.210 HD
ENDBRANCH  16  19
BRANCH  12  21
ATOM     21  C5* UNL     1      -5.154   3.810 -24.689  0.00  0.00    +0.190 C 
BRANCH  21  22
ATOM     22  O5* UNL     1      -4.825   4.267 -25.860  0.00  0.00    -0.392 OA
ATOM     23  H5* UNL     1      -3.989   3.865 -26.141  0.00  0.00    +0.210 HD
ENDBRANCH  21  22
ENDBRANCH  12  21
ENDBRANCH   1  14
BRANCH   9  24
ATOM     24  C   UNL     1       4.339   2.519 -23.649  0.00  0.00    +0.138 C 
BRANCH  24  25
ATOM     25  C   UNL     1       5.150   3.190 -22.886  0.00  0.00    -0.030 A 
ATOM     26  C   UNL     1       5.562   2.677 -21.765  0.00  0.00    +0.005 A 
ATOM     27  C   UNL     1       6.373   3.347 -21.003  0.00  0.00    +0.000 A 
ATOM     28  C   UNL     1       6.773   4.531 -21.361  0.00  0.00    +0.000 A 
ATOM     29  C   UNL     1       6.361   5.045 -22.482  0.00  0.00    +0.000 A 
ATOM     30  C   UNL     1       5.550   4.374 -23.245  0.00  0.00    +0.005 A 
ENDBRANCH  24  25
ENDBRANCH   9  24
TORSDOF 7
ENDMDL
MODEL 7
REMARK VINA RESULT:    -8.036      3.349      8.485
REMARK INTER + INTRA:         -11.031
REMARK INTER:                 -10.020
REMARK INTRA:                  -1.011
REMARK UNBOUND:                -0.410
REMARK  Name = ZINC000004257486
REMARK  7 active torsions:
REMARK  status: ('A' for Active; 'I' for Inactive)
REMARK    1  A    between atoms: O5*_1  and  C5*_2
REMARK    2  A    between atoms: C5*_2  and  C4*_3
REMARK    3  A    between atoms: C1*_5  and  N_6
REMARK    4  A    between atoms: N_11  and  C_12
REMARK    5  A    between atoms: C_12  and  C_13
REMARK    6  A    between atoms: C2*_23  and  O2*_24
REMARK    7  A    between atoms: C3*_25  and  O3*_26
REMARK                            x       y       z     vdW  Elec       q    Type
REMARK                         _______ _______ _______ _____ _____    ______ ____
ROOT
ATOM      1  N   UNL     1       0.768   2.847 -23.346  0.00  0.00    -0.286 N 
ATOM      2  C   UNL     1       1.455   1.749 -23.236  0.00  0.00    +0.203 A 
ATOM      3  N   UNL     1       2.697   2.071 -23.026  0.00  0.00    -0.231 NA
ATOM      4  C   UNL     1       2.778   3.368 -23.007  0.00  0.00    +0.147 A 
ATOM      5  C   UNL     1       3.783   4.175 -22.835  0.00  0.00    +0.150 A 
ATOM      6  N   UNL     1       3.596   5.461 -22.861  0.00  0.00    -0.219 NA
ATOM      7  C   UNL     1       2.405   5.941 -23.058  0.00  0.00    +0.225 A 
ATOM      8  N   UNL     1       1.399   5.134 -23.230  0.00  0.00    -0.216 NA
ATOM      9  N   UNL     1       4.975   3.695 -22.638  0.00  0.00    -0.323 N 
ATOM     10  H   UNL     1       5.117   2.720 -22.619  0.00  0.00    +0.148 HD
ATOM     11  C   UNL     1       1.586   3.848 -23.204  0.00  0.00    +0.167 A 
ENDROOT
BRANCH   1  14
ATOM     12  C4* UNL     1      -2.591   2.994 -23.250  0.00  0.00    +0.177 C 
ATOM     13  O4* UNL     1      -1.442   2.873 -22.653  0.00  0.00    -0.346 OA
ATOM     14  C1* UNL     1      -0.511   2.931 -23.559  0.00  0.00    +0.253 C 
ATOM     15  C2* UNL     1      -1.085   3.088 -24.715  0.00  0.00    +0.195 C 
ATOM     16  C3* UNL     1      -2.371   3.126 -24.524  0.00  0.00    +0.178 C 
BRANCH  15  17
ATOM     17  O2* UNL     1      -0.479   3.188 -25.861  0.00  0.00    -0.385 OA
ATOM     18  H2* UNL     1      -1.130   3.129 -26.577  0.00  0.00    +0.210 HD
ENDBRANCH  15  17
BRANCH  16  19
ATOM     19  O3* UNL     1      -3.275   3.272 -25.445  0.00  0.00    -0.386 OA
ATOM     20  H3* UNL     1      -4.132   2.966 -25.107  0.00  0.00    +0.210 HD
ENDBRANCH  16  19
BRANCH  12  21
ATOM     21  C5* UNL     1      -3.756   2.983 -22.673  0.00  0.00    +0.190 C 
BRANCH  21  22
ATOM     22  O5* UNL     1      -4.716   3.729 -23.135  0.00  0.00    -0.392 OA
ATOM     23  H5* UNL     1      -4.338   4.473 -23.628  0.00  0.00    +0.210 HD
ENDBRANCH  21  22
ENDBRANCH  12  21
ENDBRANCH   1  14
BRANCH   9  24
ATOM     24  C   UNL     1       5.980   4.501 -22.466  0.00  0.00    +0.138 C 
BRANCH  24  25
ATOM     25  C   UNL     1       6.959   4.511 -23.322  0.00  0.00    -0.030 A 
ATOM     26  C   UNL     1       7.589   5.620 -23.576  0.00  0.00    +0.005 A 
ATOM     27  C   UNL     1       8.567   5.630 -24.431  0.00  0.00    +0.000 A 
ATOM     28  C   UNL     1       8.917   4.532 -25.033  0.00  0.00    +0.000 A 
ATOM     29  C   UNL     1       8.287   3.422 -24.778  0.00  0.00    +0.000 A 
ATOM     30  C   UNL     1       7.308   3.412 -23.923  0.00  0.00    +0.005 A 
ENDBRANCH  24  25
ENDBRANCH   9  24
TORSDOF 7
ENDMDL
MODEL 8
REMARK VINA RESULT:    -7.569      3.508      8.576
REMARK INTER + INTRA:         -10.413
REMARK INTER:                  -9.588
REMARK INTRA:                  -0.825
REMARK UNBOUND:                -0.410
REMARK  Name = ZINC000004257486
REMARK  7 active torsions:
REMARK  status: ('A' for Active; 'I' for Inactive)
REMARK    1  A    between atoms: O5*_1  and  C5*_2
REMARK    2  A    between atoms: C5*_2  and  C4*_3
REMARK    3  A    between atoms: C1*_5  and  N_6
REMARK    4  A    between atoms: N_11  and  C_12
REMARK    5  A    between atoms: C_12  and  C_13
REMARK    6  A    between atoms: C2*_23  and  O2*_24
REMARK    7  A    between atoms: C3*_25  and  O3*_26
REMARK                            x       y       z     vdW  Elec       q    Type
REMARK                         _______ _______ _______ _____ _____    ______ ____
ROOT
ATOM      1  N   UNL     1       2.474   3.267 -23.790  0.00  0.00    -0.286 N 
ATOM      2  C   UNL     1       3.346   2.324 -23.990  0.00  0.00    +0.203 A 
ATOM      3  N   UNL     1       4.516   2.779 -23.646  0.00  0.00    -0.231 NA
ATOM      4  C   UNL     1       4.365   4.002 -23.234  0.00  0.00    +0.147 A 
ATOM      5  C   UNL     1       5.214   4.882 -22.789  0.00  0.00    +0.150 A 
ATOM      6  N   UNL     1       4.801   6.061 -22.433  0.00  0.00    -0.219 NA
ATOM      7  C   UNL     1       3.540   6.363 -22.521  0.00  0.00    +0.225 A 
ATOM      8  N   UNL     1       2.691   5.484 -22.966  0.00  0.00    -0.216 NA
ATOM      9  N   UNL     1       6.475   4.580 -22.701  0.00  0.00    -0.323 N 
ATOM     10  H   UNL     1       6.788   3.685 -22.971  0.00  0.00    +0.148 HD
ATOM     11  C   UNL     1       3.104   4.304 -23.322  0.00  0.00    +0.167 A 
ENDROOT
BRANCH   1  14
ATOM     12  C4* UNL     1      -0.869   2.894 -23.744  0.00  0.00    +0.177 C 
ATOM     13  O4* UNL     1       0.285   2.866 -23.146  0.00  0.00    -0.346 OA
ATOM     14  C1* UNL     1       1.197   3.187 -24.016  0.00  0.00    +0.253 C 
ATOM     15  C2* UNL     1       0.606   3.413 -25.152  0.00  0.00    +0.195 C 
ATOM     16  C3* UNL     1      -0.671   3.233 -24.984  0.00  0.00    +0.178 C 
BRANCH  15  17
ATOM     17  O2* UNL     1       1.190   3.760 -26.260  0.00  0.00    -0.385 OA
ATOM     18  H2* UNL     1       0.921   4.660 -26.500  0.00  0.00    +0.210 HD
ENDBRANCH  15  17
BRANCH  16  19
ATOM     19  O3* UNL     1      -1.587   3.367 -25.895  0.00  0.00    -0.386 OA
ATOM     20  H3* UNL     1      -1.225   3.108 -26.757  0.00  0.00    +0.210 HD
ENDBRANCH  16  19
BRANCH  12  21
ATOM     21  C5* UNL     1      -2.019   2.631 -23.199  0.00  0.00    +0.190 C 
BRANCH  21  22
ATOM     22  O5* UNL     1      -3.019   3.443 -23.368  0.00  0.00    -0.392 OA
ATOM     23  H5* UNL     1      -2.722   4.224 -23.861  0.00  0.00    +0.210 HD
ENDBRANCH  21  22
ENDBRANCH  12  21
ENDBRANCH   1  14
BRANCH   9  24
ATOM     24  C   UNL     1       7.324   5.458 -22.256  0.00  0.00    +0.138 C 
BRANCH  24  25
ATOM     25  C   UNL     1       7.902   6.279 -23.081  0.00  0.00    -0.030 A 
ATOM     26  C   UNL     1       7.998   7.541 -22.783  0.00  0.00    +0.005 A 
ATOM     27  C   UNL     1       8.576   8.362 -23.609  0.00  0.00    +0.000 A 
ATOM     28  C   UNL     1       9.059   7.921 -24.732  0.00  0.00    +0.000 A 
ATOM     29  C   UNL     1       8.963   6.659 -25.031  0.00  0.00    +0.000 A 
ATOM     30  C   UNL     1       8.385   5.838 -24.206  0.00  0.00    +0.005 A 
ENDBRANCH  24  25
ENDBRANCH   9  24
TORSDOF 7
ENDMDL
MODEL 9
REMARK VINA RESULT:    -7.213      3.520      8.038
REMARK INTER + INTRA:          -9.943
REMARK INTER:                  -9.532
REMARK INTRA:                  -0.410
REMARK UNBOUND:                -0.410
REMARK  Name = ZINC000004257486
REMARK  7 active torsions:
REMARK  status: ('A' for Active; 'I' for Inactive)
REMARK    1  A    between atoms: O5*_1  and  C5*_2
REMARK    2  A    between atoms: C5*_2  and  C4*_3
REMARK    3  A    between atoms: C1*_5  and  N_6
REMARK    4  A    between atoms: N_11  and  C_12
REMARK    5  A    between atoms: C_12  and  C_13
REMARK    6  A    between atoms: C2*_23  and  O2*_24
REMARK    7  A    between atoms: C3*_25  and  O3*_26
REMARK                            x       y       z     vdW  Elec       q    Type
REMARK                         _______ _______ _______ _____ _____    ______ ____
ROOT
ATOM      1  N   UNL     1       0.570   2.858 -23.139  0.00  0.00    -0.286 N 
ATOM      2  C   UNL     1       1.260   1.756 -23.129  0.00  0.00    +0.203 A 
ATOM      3  N   UNL     1       2.521   2.071 -23.157  0.00  0.00    -0.231 NA
ATOM      4  C   UNL     1       2.611   3.367 -23.185  0.00  0.00    +0.147 A 
ATOM      5  C   UNL     1       3.635   4.168 -23.218  0.00  0.00    +0.150 A 
ATOM      6  N   UNL     1       3.453   5.455 -23.241  0.00  0.00    -0.219 NA
ATOM      7  C   UNL     1       2.248   5.942 -23.230  0.00  0.00    +0.225 A 
ATOM      8  N   UNL     1       1.224   5.141 -23.196  0.00  0.00    -0.216 NA
ATOM      9  N   UNL     1       4.841   3.681 -23.229  0.00  0.00    -0.323 N 
ATOM     10  H   UNL     1       4.978   2.706 -23.212  0.00  0.00    +0.148 HD
ATOM     11  C   UNL     1       1.406   3.854 -23.174  0.00  0.00    +0.167 A 
ENDROOT
BRANCH   1  14
ATOM     12  C4* UNL     1      -2.715   3.321 -23.696  0.00  0.00    +0.177 C 
ATOM     13  O4* UNL     1      -1.477   3.376 -24.090  0.00  0.00    -0.346 OA
ATOM     14  C1* UNL     1      -0.726   2.949 -23.119  0.00  0.00    +0.253 C 
ATOM     15  C2* UNL     1      -1.499   2.629 -22.124  0.00  0.00    +0.195 C 
ATOM     16  C3* UNL     1      -2.729   2.859 -22.480  0.00  0.00    +0.178 C 
BRANCH  15  17
ATOM     17  O2* UNL     1      -1.111   2.162 -20.975  0.00  0.00    -0.385 OA
ATOM     18  H2* UNL     1      -1.667   2.531 -20.271  0.00  0.00    +0.210 HD
ENDBRANCH  15  17
BRANCH  16  19
ATOM     19  O3* UNL     1      -3.785   2.661 -21.750  0.00  0.00    -0.386 OA
ATOM     20  H3* UNL     1      -4.579   2.758 -22.299  0.00  0.00    +0.210 HD
ENDBRANCH  16  19
BRANCH  12  21
ATOM     21  C5* UNL     1      -3.755   3.666 -24.393  0.00  0.00    +0.190 C 
BRANCH  21  22
ATOM     22  O5* UNL     1      -4.935   3.659 -23.848  0.00  0.00    -0.392 OA
ATOM     23  H5* UNL     1      -5.480   4.353 -24.249  0.00  0.00    +0.210 HD
ENDBRANCH  21  22
ENDBRANCH  12  21
ENDBRANCH   1  14
BRANCH   9  24
ATOM     24  C   UNL     1       5.864   4.482 -23.263  0.00  0.00    +0.138 C 
BRANCH  24  25
ATOM     25  C   UNL     1       6.388   4.914 -22.155  0.00  0.00    -0.030 A 
ATOM     26  C   UNL     1       6.890   4.072 -21.301  0.00  0.00    +0.005 A 
ATOM     27  C   UNL     1       7.413   4.505 -20.193  0.00  0.00    +0.000 A 
ATOM     28  C   UNL     1       7.435   5.779 -19.938  0.00  0.00    +0.000 A 
ATOM     29  C   UNL     1       6.933   6.622 -20.792  0.00  0.00    +0.000 A 
ATOM     30  C   UNL     1       6.409   6.190 -21.900  0.00  0.00    +0.005 A 
ENDBRANCH  24  25
ENDBRANCH   9  24
TORSDOF 7
ENDMDL
