MODEL 1
REMARK VINA RESULT:   -10.915      0.000      0.000
REMARK INTER + INTRA:         -11.445
REMARK INTER:                 -11.956
REMARK INTRA:                   0.512
REMARK UNBOUND:                 0.428
REMARK  Name = COc1cc(Br)c2c(c1O)[C@@]13CCN(C)[C@@H](C2)[C@@H]1CCC(=O)C3            ZINC000253505312
REMARK  4 active torsions:
REMARK  status: ('A' for Active; 'I' for Inactive)
REMARK    1  A    between atoms: C_1  and  O_2
REMARK    2  A    between atoms: O_2  and  C_3
REMARK    3  A    between atoms: C_9  and  O_10
REMARK    4  A    between atoms: N_14  and  C_15
REMARK                            x       y       z     vdW  Elec       q    Type
REMARK                         _______ _______ _______ _____ _____    ______ ____
ROOT
ATOM      1  C   UNL     1       0.624   2.710 -24.104  0.00  0.00    +0.163 A 
ATOM      2  C   UNL     1       0.965   2.263 -22.949  0.00  0.00    +0.065 A 
ATOM      3  C   UNL     1       0.109   2.129 -22.021  0.00  0.00    +0.025 A 
ATOM      4  C   UNL     1      -1.439   2.536 -22.315  0.00  0.00    -0.021 A 
ATOM      5  C   UNL     1      -1.560   2.927 -23.433  0.00  0.00    +0.009 A 
ATOM      6  C   UNL     1      -2.333   3.229 -23.882  0.00  0.00    +0.019 C 
ATOM      7  C   UNL     1      -3.191   3.655 -24.655  0.00  0.00    +0.063 C 
ATOM      8  C   UNL     1      -4.374   3.725 -24.149  0.00  0.00    +0.132 C 
ATOM      9  N   UNL     1      -4.485   3.334 -22.890  0.00  0.00    +0.236 N 
ATOM     10  H   UNL     1      -4.661   3.053 -21.926  0.00  0.00    +0.203 HD
ATOM     11  C   UNL     1      -3.402   2.938 -22.345  0.00  0.00    +0.072 C 
ATOM     12  C   UNL     1      -5.587   3.393 -22.397  0.00  0.00    +0.190 C 
ATOM     13  C   UNL     1      -0.924   2.892 -23.714  0.00  0.00    +0.086 C 
ATOM     14  C   UNL     1      -0.464   2.388 -22.459  0.00  0.00    +0.134 C 
ATOM     15  O   UNL     1      -0.693   1.862 -20.717  0.00  0.00    -0.297 OA
ATOM     16  C   UNL     1      -1.086   2.222 -21.573  0.00  0.00    +0.075 C 
ATOM     17  C   UNL     1      -2.051   2.432 -21.626  0.00  0.00    +0.017 C 
ATOM     18  C   UNL     1      -2.712   2.980 -22.894  0.00  0.00    +0.050 C 
ATOM     19  C   UNL     1      -2.828   2.587 -21.625  0.00  0.00    +0.091 C 
ATOM     20 BR   UNL     1       1.698   1.966 -22.492  0.00  0.00    -0.050 Br
ATOM     21  C   UNL     1      -0.581   3.038 -24.367  0.00  0.00    +0.163 A 
ENDROOT
BRANCH   1  23
ATOM     22  C   UNL     1       2.185   1.849 -25.496  0.00  0.00    +0.277 C 
ATOM     23  O   UNL     1       1.456   2.871 -25.103  0.00  0.00    -0.491 OA
ENDBRANCH   1  23
BRANCH  21  24
ATOM     24  O   UNL     1      -0.698   3.490 -25.675  0.00  0.00    -0.503 OA
ATOM     25  H   UNL     1      -0.621   2.886 -26.387  0.00  0.00    +0.292 HD
ENDBRANCH  21  24
TORSDOF 2
ENDMDL
MODEL 2
REMARK VINA RESULT:   -10.806      1.087      2.643
REMARK INTER + INTRA:         -11.325
REMARK INTER:                 -11.749
REMARK INTRA:                   0.424
REMARK UNBOUND:                 0.428
REMARK  Name = COc1cc(Br)c2c(c1O)[C@@]13CCN(C)[C@@H](C2)[C@@H]1CCC(=O)C3            ZINC000253505312
REMARK  4 active torsions:
REMARK  status: ('A' for Active; 'I' for Inactive)
REMARK    1  A    between atoms: C_1  and  O_2
REMARK    2  A    between atoms: O_2  and  C_3
REMARK    3  A    between atoms: C_9  and  O_10
REMARK    4  A    between atoms: N_14  and  C_15
REMARK                            x       y       z     vdW  Elec       q    Type
REMARK                         _______ _______ _______ _____ _____    ______ ____
ROOT
ATOM      1  C   UNL     1       0.808   2.388 -22.935  0.00  0.00    +0.163 A 
ATOM      2  C   UNL     1       0.849   2.791 -24.154  0.00  0.00    +0.065 A 
ATOM      3  C   UNL     1      -0.201   3.188 -24.747  0.00  0.00    +0.025 A 
ATOM      4  C   UNL     1      -1.612   3.180 -23.937  0.00  0.00    -0.021 A 
ATOM      5  C   UNL     1      -1.452   2.777 -22.829  0.00  0.00    +0.009 A 
ATOM      6  C   UNL     1      -2.081   2.661 -22.136  0.00  0.00    +0.019 C 
ATOM      7  C   UNL     1      -2.713   2.432 -21.104  0.00  0.00    +0.063 C 
ATOM      8  C   UNL     1      -3.972   2.695 -21.182  0.00  0.00    +0.132 C 
ATOM      9  N   UNL     1      -4.390   3.166 -22.346  0.00  0.00    +0.236 N 
ATOM     10  H   UNL     1      -4.797   3.533 -23.206  0.00  0.00    +0.203 HD
ATOM     11  C   UNL     1      -3.486   3.297 -23.237  0.00  0.00    +0.072 C 
ATOM     12  C   UNL     1      -5.568   3.419 -22.440  0.00  0.00    +0.190 C 
ATOM     13  C   UNL     1      -0.773   2.632 -22.778  0.00  0.00    +0.086 C 
ATOM     14  C   UNL     1      -0.642   3.064 -24.134  0.00  0.00    +0.134 C 
ATOM     15  O   UNL     1      -1.292   3.720 -25.718  0.00  0.00    -0.297 OA
ATOM     16  C   UNL     1      -1.457   3.430 -24.766  0.00  0.00    +0.075 C 
ATOM     17  C   UNL     1      -2.369   3.474 -24.386  0.00  0.00    +0.017 C 
ATOM     18  C   UNL     1      -2.689   3.050 -22.949  0.00  0.00    +0.050 C 
ATOM     19  C   UNL     1      -3.114   3.524 -24.120  0.00  0.00    +0.091 C 
ATOM     20 BR   UNL     1       1.439   2.911 -24.841  0.00  0.00    -0.050 Br
ATOM     21  C   UNL     1      -0.282   2.369 -22.272  0.00  0.00    +0.163 A 
ENDROOT
BRANCH   1  23
ATOM     22  C   UNL     1       2.338   0.772 -22.531  0.00  0.00    +0.277 C 
ATOM     23  O   UNL     1       1.852   1.966 -22.267  0.00  0.00    -0.491 OA
ENDBRANCH   1  23
BRANCH  21  24
ATOM     24  O   UNL     1      -0.071   1.895 -20.984  0.00  0.00    -0.503 OA
ATOM     25  H   UNL     1      -0.795   1.791 -20.399  0.00  0.00    +0.292 HD
ENDBRANCH  21  24
TORSDOF 2
ENDMDL
MODEL 3
REMARK VINA RESULT:   -10.767      2.166      3.987
REMARK INTER + INTRA:         -11.284
REMARK INTER:                 -11.713
REMARK INTRA:                   0.429
REMARK UNBOUND:                 0.428
REMARK  Name = COc1cc(Br)c2c(c1O)[C@@]13CCN(C)[C@@H](C2)[C@@H]1CCC(=O)C3            ZINC000253505312
REMARK  4 active torsions:
REMARK  status: ('A' for Active; 'I' for Inactive)
REMARK    1  A    between atoms: C_1  and  O_2
REMARK    2  A    between atoms: O_2  and  C_3
REMARK    3  A    between atoms: C_9  and  O_10
REMARK    4  A    between atoms: N_14  and  C_15
REMARK                            x       y       z     vdW  Elec       q    Type
REMARK                         _______ _______ _______ _____ _____    ______ ____
ROOT
ATOM      1  C   UNL     1      -2.948   3.501 -24.687  0.00  0.00    +0.163 A 
ATOM      2  C   UNL     1      -3.740   3.412 -23.680  0.00  0.00    +0.065 A 
ATOM      3  C   UNL     1      -3.320   3.003 -22.553  0.00  0.00    +0.025 A 
ATOM      4  C   UNL     1      -1.754   2.590 -22.400  0.00  0.00    -0.021 A 
ATOM      5  C   UNL     1      -1.183   2.739 -23.434  0.00  0.00    +0.009 A 
ATOM      6  C   UNL     1      -0.277   2.582 -23.646  0.00  0.00    +0.019 C 
ATOM      7  C   UNL     1       0.842   2.454 -24.144  0.00  0.00    +0.063 C 
ATOM      8  C   UNL     1       1.739   2.018 -23.329  0.00  0.00    +0.132 C 
ATOM      9  N   UNL     1       1.327   1.776 -22.095  0.00  0.00    +0.236 N 
ATOM     10  H   UNL     1       1.096   1.564 -21.125  0.00  0.00    +0.203 HD
ATOM     11  C   UNL     1       0.092   2.009 -21.879  0.00  0.00    +0.072 C 
ATOM     12  C   UNL     1       2.154   1.366 -21.315  0.00  0.00    +0.190 C 
ATOM     13  C   UNL     1      -1.662   2.975 -23.880  0.00  0.00    +0.086 C 
ATOM     14  C   UNL     1      -2.606   2.904 -22.811  0.00  0.00    +0.134 C 
ATOM     15  O   UNL     1      -3.106   2.548 -21.083  0.00  0.00    -0.297 OA
ATOM     16  C   UNL     1      -2.387   2.572 -21.791  0.00  0.00    +0.075 C 
ATOM     17  C   UNL     1      -1.465   2.293 -21.570  0.00  0.00    +0.017 C 
ATOM     18  C   UNL     1      -0.328   2.306 -22.596  0.00  0.00    +0.050 C 
ATOM     19  C   UNL     1      -0.739   2.061 -21.352  0.00  0.00    +0.091 C 
ATOM     20 BR   UNL     1      -4.611   3.555 -23.449  0.00  0.00    -0.050 Br
ATOM     21  C   UNL     1      -1.714   3.185 -24.601  0.00  0.00    +0.163 A 
ENDROOT
BRANCH   1  23
ATOM     22  C   UNL     1      -4.022   3.110 -26.639  0.00  0.00    +0.277 C 
ATOM     23  O   UNL     1      -3.315   3.914 -25.875  0.00  0.00    -0.491 OA
ENDBRANCH   1  23
BRANCH  21  24
ATOM     24  O   UNL     1      -1.069   3.367 -25.817  0.00  0.00    -0.503 OA
ATOM     25  H   UNL     1      -1.068   2.679 -26.454  0.00  0.00    +0.292 HD
ENDBRANCH  21  24
TORSDOF 2
ENDMDL
MODEL 4
REMARK VINA RESULT:   -10.504      0.981      1.243
REMARK INTER + INTRA:         -10.997
REMARK INTER:                 -11.528
REMARK INTRA:                   0.531
REMARK UNBOUND:                 0.428
REMARK  Name = COc1cc(Br)c2c(c1O)[C@@]13CCN(C)[C@@H](C2)[C@@H]1CCC(=O)C3            ZINC000253505312
REMARK  4 active torsions:
REMARK  status: ('A' for Active; 'I' for Inactive)
REMARK    1  A    between atoms: C_1  and  O_2
REMARK    2  A    between atoms: O_2  and  C_3
REMARK    3  A    between atoms: C_9  and  O_10
REMARK    4  A    between atoms: N_14  and  C_15
REMARK                            x       y       z     vdW  Elec       q    Type
REMARK                         _______ _______ _______ _____ _____    ______ ____
ROOT
ATOM      1  C   UNL     1       1.741   2.265 -23.610  0.00  0.00    +0.163 A 
ATOM      2  C   UNL     1       1.857   1.623 -22.503  0.00  0.00    +0.065 A 
ATOM      3  C   UNL     1       0.859   1.458 -21.736  0.00  0.00    +0.025 A 
ATOM      4  C   UNL     1      -0.581   2.074 -22.174  0.00  0.00    -0.021 A 
ATOM      5  C   UNL     1      -0.492   2.631 -23.223  0.00  0.00    +0.009 A 
ATOM      6  C   UNL     1      -1.155   3.079 -23.722  0.00  0.00    +0.019 C 
ATOM      7  C   UNL     1      -1.841   3.705 -24.531  0.00  0.00    +0.063 C 
ATOM      8  C   UNL     1      -3.076   3.837 -24.189  0.00  0.00    +0.132 C 
ATOM      9  N   UNL     1      -3.416   3.287 -23.035  0.00  0.00    +0.236 N 
ATOM     10  H   UNL     1      -3.764   2.894 -22.161  0.00  0.00    +0.203 HD
ATOM     11  C   UNL     1      -2.471   2.698 -22.414  0.00  0.00    +0.072 C 
ATOM     12  C   UNL     1      -4.571   3.400 -22.696  0.00  0.00    +0.190 C 
ATOM     13  C   UNL     1       0.174   2.564 -23.415  0.00  0.00    +0.086 C 
ATOM     14  C   UNL     1       0.386   1.839 -22.203  0.00  0.00    +0.134 C 
ATOM     15  O   UNL     1      -0.156   1.101 -20.614  0.00  0.00    -0.297 OA
ATOM     16  C   UNL     1      -0.378   1.621 -21.450  0.00  0.00    +0.075 C 
ATOM     17  C   UNL     1      -1.299   1.944 -21.602  0.00  0.00    +0.017 C 
ATOM     18  C   UNL     1      -1.704   2.738 -22.848  0.00  0.00    +0.050 C 
ATOM     19  C   UNL     1      -2.050   2.185 -21.685  0.00  0.00    +0.091 C 
ATOM     20 BR   UNL     1       2.480   1.183 -22.001  0.00  0.00    -0.050 Br
ATOM     21  C   UNL     1       0.626   2.761 -23.983  0.00  0.00    +0.163 A 
ENDROOT
BRANCH   1  23
ATOM     22  C   UNL     1       3.842   3.006 -23.995  0.00  0.00    +0.277 C 
ATOM     23  O   UNL     1       2.728   2.471 -24.445  0.00  0.00    -0.491 OA
ENDBRANCH   1  23
BRANCH  21  24
ATOM     24  O   UNL     1       0.754   3.405 -25.207  0.00  0.00    -0.503 OA
ATOM     25  H   UNL     1       0.692   4.339 -25.253  0.00  0.00    +0.292 HD
ENDBRANCH  21  24
TORSDOF 2
ENDMDL
MODEL 5
REMARK VINA RESULT:   -10.496      2.483      5.114
REMARK INTER + INTRA:         -10.989
REMARK INTER:                 -11.412
REMARK INTRA:                   0.423
REMARK UNBOUND:                 0.428
REMARK  Name = COc1cc(Br)c2c(c1O)[C@@]13CCN(C)[C@@H](C2)[C@@H]1CCC(=O)C3            ZINC000253505312
REMARK  4 active torsions:
REMARK  status: ('A' for Active; 'I' for Inactive)
REMARK    1  A    between atoms: C_1  and  O_2
REMARK    2  A    between atoms: O_2  and  C_3
REMARK    3  A    between atoms: C_9  and  O_10
REMARK    4  A    between atoms: N_14  and  C_15
REMARK                            x       y       z     vdW  Elec       q    Type
REMARK                         _______ _______ _______ _____ _____    ______ ____
ROOT
ATOM      1  C   UNL     1      -4.424   3.638 -22.878  0.00  0.00    +0.163 A 
ATOM      2  C   UNL     1      -4.791   3.869 -24.088  0.00  0.00    +0.065 A 
ATOM      3  C   UNL     1      -3.952   3.842 -25.041  0.00  0.00    +0.025 A 
ATOM      4  C   UNL     1      -2.395   3.509 -24.709  0.00  0.00    -0.021 A 
ATOM      5  C   UNL     1      -2.250   3.325 -23.542  0.00  0.00    +0.009 A 
ATOM      6  C   UNL     1      -1.466   3.115 -23.061  0.00  0.00    +0.019 C 
ATOM      7  C   UNL     1      -0.589   2.842 -22.240  0.00  0.00    +0.063 C 
ATOM      8  C   UNL     1       0.586   2.693 -22.748  0.00  0.00    +0.132 C 
ATOM      9  N   UNL     1       0.670   2.854 -24.058  0.00  0.00    +0.236 N 
ATOM     10  H   UNL     1       0.826   2.960 -25.060  0.00  0.00    +0.203 HD
ATOM     11  C   UNL     1      -0.427   3.136 -24.644  0.00  0.00    +0.072 C 
ATOM     12  C   UNL     1       1.764   2.718 -24.554  0.00  0.00    +0.190 C 
ATOM     13  C   UNL     1      -2.881   3.403 -23.260  0.00  0.00    +0.086 C 
ATOM     14  C   UNL     1      -3.369   3.671 -24.575  0.00  0.00    +0.134 C 
ATOM     15  O   UNL     1      -3.176   3.880 -26.387  0.00  0.00    -0.297 OA
ATOM     16  C   UNL     1      -2.764   3.682 -25.488  0.00  0.00    +0.075 C 
ATOM     17  C   UNL     1      -1.796   3.493 -25.417  0.00  0.00    +0.017 C 
ATOM     18  C   UNL     1      -1.106   3.186 -24.084  0.00  0.00    +0.050 C 
ATOM     19  C   UNL     1      -1.017   3.347 -25.405  0.00  0.00    +0.091 C 
ATOM     20 BR   UNL     1      -5.535   4.072 -24.576  0.00  0.00    -0.050 Br
ATOM     21  C   UNL     1      -3.211   3.373 -22.584  0.00  0.00    +0.163 A 
ENDROOT
BRANCH   1  23
ATOM     22  C   UNL     1      -6.121   2.683 -21.727  0.00  0.00    +0.277 C 
ATOM     23  O   UNL     1      -5.237   3.650 -21.851  0.00  0.00    -0.491 OA
ENDBRANCH   1  23
BRANCH  21  24
ATOM     24  O   UNL     1      -3.067   3.163 -21.219  0.00  0.00    -0.503 OA
ATOM     25  H   UNL     1      -3.037   2.289 -20.881  0.00  0.00    +0.292 HD
ENDBRANCH  21  24
TORSDOF 2
ENDMDL
MODEL 6
REMARK VINA RESULT:   -10.210      1.450      3.250
REMARK INTER + INTRA:         -10.678
REMARK INTER:                 -11.121
REMARK INTRA:                   0.443
REMARK UNBOUND:                 0.428
REMARK  Name = COc1cc(Br)c2c(c1O)[C@@]13CCN(C)[C@@H](C2)[C@@H]1CCC(=O)C3            ZINC000253505312
REMARK  4 active torsions:
REMARK  status: ('A' for Active; 'I' for Inactive)
REMARK    1  A    between atoms: C_1  and  O_2
REMARK    2  A    between atoms: O_2  and  C_3
REMARK    3  A    between atoms: C_9  and  O_10
REMARK    4  A    between atoms: N_14  and  C_15
REMARK                            x       y       z     vdW  Elec       q    Type
REMARK                         _______ _______ _______ _____ _____    ______ ____
ROOT
ATOM      1  C   UNL     1       1.820   1.528 -22.617  0.00  0.00    +0.163 A 
ATOM      2  C   UNL     1       2.487   1.870 -23.660  0.00  0.00    +0.065 A 
ATOM      3  C   UNL     1       1.946   2.547 -24.588  0.00  0.00    +0.025 A 
ATOM      4  C   UNL     1       0.385   2.981 -24.438  0.00  0.00    -0.021 A 
ATOM      5  C   UNL     1      -0.061   2.576 -23.411  0.00  0.00    +0.009 A 
ATOM      6  C   UNL     1      -0.930   2.671 -23.056  0.00  0.00    +0.019 C 
ATOM      7  C   UNL     1      -1.976   2.667 -22.407  0.00  0.00    +0.063 C 
ATOM      8  C   UNL     1      -2.953   3.291 -22.970  0.00  0.00    +0.132 C 
ATOM      9  N   UNL     1      -2.686   3.836 -24.145  0.00  0.00    +0.236 N 
ATOM     10  H   UNL     1      -2.568   4.286 -25.053  0.00  0.00    +0.203 HD
ATOM     11  C   UNL     1      -1.493   3.669 -24.565  0.00  0.00    +0.072 C 
ATOM     12  C   UNL     1      -3.589   4.427 -24.690  0.00  0.00    +0.190 C 
ATOM     13  C   UNL     1       0.461   2.236 -23.101  0.00  0.00    +0.086 C 
ATOM     14  C   UNL     1       1.271   2.576 -24.228  0.00  0.00    +0.134 C 
ATOM     15  O   UNL     1       1.569   3.357 -25.860  0.00  0.00    -0.297 OA
ATOM     16  C   UNL     1       0.940   3.153 -25.097  0.00  0.00    +0.075 C 
ATOM     17  C   UNL     1       0.007   3.476 -25.125  0.00  0.00    +0.017 C 
ATOM     18  C   UNL     1      -0.999   3.203 -24.002  0.00  0.00    +0.050 C 
ATOM     19  C   UNL     1      -0.733   3.753 -25.187  0.00  0.00    +0.091 C 
ATOM     20 BR   UNL     1       3.320   1.792 -24.025  0.00  0.00    -0.050 Br
ATOM     21  C   UNL     1       0.594   1.852 -22.468  0.00  0.00    +0.163 A 
ENDROOT
BRANCH   1  23
ATOM     22  C   UNL     1       3.288   1.349 -20.906  0.00  0.00    +0.277 C 
ATOM     23  O   UNL     1       2.316   0.831 -21.625  0.00  0.00    -0.491 OA
ENDBRANCH   1  23
BRANCH  21  24
ATOM     24  O   UNL     1       0.096   1.369 -21.265  0.00  0.00    -0.503 OA
ATOM     25  H   UNL     1      -0.716   0.900 -21.249  0.00  0.00    +0.292 HD
ENDBRANCH  21  24
TORSDOF 2
ENDMDL
MODEL 7
REMARK VINA RESULT:   -10.111      2.913      5.458
REMARK INTER + INTRA:         -10.570
REMARK INTER:                 -10.995
REMARK INTRA:                   0.424
REMARK UNBOUND:                 0.428
REMARK  Name = COc1cc(Br)c2c(c1O)[C@@]13CCN(C)[C@@H](C2)[C@@H]1CCC(=O)C3            ZINC000253505312
REMARK  4 active torsions:
REMARK  status: ('A' for Active; 'I' for Inactive)
REMARK    1  A    between atoms: C_1  and  O_2
REMARK    2  A    between atoms: O_2  and  C_3
REMARK    3  A    between atoms: C_9  and  O_10
REMARK    4  A    between atoms: N_14  and  C_15
REMARK                            x       y       z     vdW  Elec       q    Type
REMARK                         _______ _______ _______ _____ _____    ______ ____
ROOT
ATOM      1  C   UNL     1      -0.889   2.932 -22.993  0.00  0.00    +0.163 A 
ATOM      2  C   UNL     1      -0.767   4.137 -23.421  0.00  0.00    +0.065 A 
ATOM      3  C   UNL     1       0.378   4.668 -23.561  0.00  0.00    +0.025 A 
ATOM      4  C   UNL     1       1.700   3.796 -23.189  0.00  0.00    -0.021 A 
ATOM      5  C   UNL     1       1.388   2.711 -22.812  0.00  0.00    +0.009 A 
ATOM      6  C   UNL     1       1.934   1.995 -22.530  0.00  0.00    +0.019 C 
ATOM      7  C   UNL     1       2.436   0.944 -22.130  0.00  0.00    +0.063 C 
ATOM      8  C   UNL     1       3.723   0.956 -22.077  0.00  0.00    +0.132 C 
ATOM      9  N   UNL     1       4.303   2.083 -22.457  0.00  0.00    +0.236 N 
ATOM     10  H   UNL     1       4.832   2.910 -22.731  0.00  0.00    +0.203 HD
ATOM     11  C   UNL     1       3.507   3.008 -22.825  0.00  0.00    +0.072 C 
ATOM     12  C   UNL     1       5.511   2.115 -22.415  0.00  0.00    +0.190 C 
ATOM     13  C   UNL     1       0.693   2.696 -22.838  0.00  0.00    +0.086 C 
ATOM     14  C   UNL     1       0.743   4.040 -23.319  0.00  0.00    +0.134 C 
ATOM     15  O   UNL     1       1.615   5.570 -23.831  0.00  0.00    -0.297 OA
ATOM     16  C   UNL     1       1.655   4.622 -23.488  0.00  0.00    +0.075 C 
ATOM     17  C   UNL     1       2.528   4.200 -23.297  0.00  0.00    +0.017 C 
ATOM     18  C   UNL     1       2.660   2.766 -22.775  0.00  0.00    +0.050 C 
ATOM     19  C   UNL     1       3.248   3.900 -23.157  0.00  0.00    +0.091 C 
ATOM     20 BR   UNL     1      -1.272   4.845 -23.698  0.00  0.00    -0.050 Br
ATOM     21  C   UNL     1       0.128   2.221 -22.692  0.00  0.00    +0.163 A 
ENDROOT
BRANCH   1  23
ATOM     22  C   UNL     1      -2.804   2.681 -21.817  0.00  0.00    +0.277 C 
ATOM     23  O   UNL     1      -2.038   2.326 -22.826  0.00  0.00    -0.491 OA
ENDBRANCH   1  23
BRANCH  21  24
ATOM     24  O   UNL     1      -0.260   0.962 -22.256  0.00  0.00    -0.503 OA
ATOM     25  H   UNL     1       0.029   0.646 -21.422  0.00  0.00    +0.292 HD
ENDBRANCH  21  24
TORSDOF 2
ENDMDL
MODEL 8
REMARK VINA RESULT:    -9.775      2.220      5.000
REMARK INTER + INTRA:         -10.204
REMARK INTER:                 -10.642
REMARK INTRA:                   0.438
REMARK UNBOUND:                 0.428
REMARK  Name = COc1cc(Br)c2c(c1O)[C@@]13CCN(C)[C@@H](C2)[C@@H]1CCC(=O)C3            ZINC000253505312
REMARK  4 active torsions:
REMARK  status: ('A' for Active; 'I' for Inactive)
REMARK    1  A    between atoms: C_1  and  O_2
REMARK    2  A    between atoms: O_2  and  C_3
REMARK    3  A    between atoms: C_9  and  O_10
REMARK    4  A    between atoms: N_14  and  C_15
REMARK                            x       y       z     vdW  Elec       q    Type
REMARK                         _______ _______ _______ _____ _____    ______ ____
ROOT
ATOM      1  C   UNL     1      -2.574   2.826 -22.549  0.00  0.00    +0.163 A 
ATOM      2  C   UNL     1      -2.884   3.345 -23.683  0.00  0.00    +0.065 A 
ATOM      3  C   UNL     1      -2.008   3.506 -24.588  0.00  0.00    +0.025 A 
ATOM      4  C   UNL     1      -0.476   3.045 -24.291  0.00  0.00    -0.021 A 
ATOM      5  C   UNL     1      -0.385   2.591 -23.194  0.00  0.00    +0.009 A 
ATOM      6  C   UNL     1       0.372   2.245 -22.750  0.00  0.00    +0.019 C 
ATOM      7  C   UNL     1       1.205   1.756 -21.986  0.00  0.00    +0.063 C 
ATOM      8  C   UNL     1       2.395   1.683 -22.476  0.00  0.00    +0.132 C 
ATOM      9  N   UNL     1       2.539   2.139 -23.709  0.00  0.00    +0.236 N 
ATOM     10  H   UNL     1       2.739   2.467 -24.653  0.00  0.00    +0.203 HD
ATOM     11  C   UNL     1       1.476   2.591 -24.250  0.00  0.00    +0.072 C 
ATOM     12  C   UNL     1       3.648   2.079 -24.187  0.00  0.00    +0.190 C 
ATOM     13  C   UNL     1      -1.025   2.627 -22.923  0.00  0.00    +0.086 C 
ATOM     14  C   UNL     1      -1.449   3.210 -24.156  0.00  0.00    +0.134 C 
ATOM     15  O   UNL     1      -1.176   3.824 -25.862  0.00  0.00    -0.297 OA
ATOM     16  C   UNL     1      -0.807   3.408 -25.020  0.00  0.00    +0.075 C 
ATOM     17  C   UNL     1       0.151   3.170 -24.963  0.00  0.00    +0.017 C 
ATOM     18  C   UNL     1       0.775   2.537 -23.716  0.00  0.00    +0.050 C 
ATOM     19  C   UNL     1       0.924   2.995 -24.959  0.00  0.00    +0.091 C 
ATOM     20 BR   UNL     1      -3.601   3.684 -24.135  0.00  0.00    -0.050 Br
ATOM     21  C   UNL     1      -1.383   2.454 -22.284  0.00  0.00    +0.163 A 
ENDROOT
BRANCH   1  23
ATOM     22  C   UNL     1      -3.771   3.651 -20.815  0.00  0.00    +0.277 C 
ATOM     23  O   UNL     1      -3.428   2.632 -21.574  0.00  0.00    -0.491 OA
ENDBRANCH   1  23
BRANCH  21  24
ATOM     24  O   UNL     1      -1.301   1.928 -21.001  0.00  0.00    -0.503 OA
ATOM     25  H   UNL     1      -2.058   1.543 -20.604  0.00  0.00    +0.292 HD
ENDBRANCH  21  24
TORSDOF 2
ENDMDL
MODEL 9
REMARK VINA RESULT:    -9.680      2.019      2.737
REMARK INTER + INTRA:         -10.101
REMARK INTER:                 -10.529
REMARK INTRA:                   0.428
REMARK UNBOUND:                 0.428
REMARK  Name = COc1cc(Br)c2c(c1O)[C@@]13CCN(C)[C@@H](C2)[C@@H]1CCC(=O)C3            ZINC000253505312
REMARK  4 active torsions:
REMARK  status: ('A' for Active; 'I' for Inactive)
REMARK    1  A    between atoms: C_1  and  O_2
REMARK    2  A    between atoms: O_2  and  C_3
REMARK    3  A    between atoms: C_9  and  O_10
REMARK    4  A    between atoms: N_14  and  C_15
REMARK                            x       y       z     vdW  Elec       q    Type
REMARK                         _______ _______ _______ _____ _____    ______ ____
ROOT
ATOM      1  C   UNL     1       3.077   3.708 -23.231  0.00  0.00    +0.163 A 
ATOM      2  C   UNL     1       3.318   2.566 -22.694  0.00  0.00    +0.065 A 
ATOM      3  C   UNL     1       2.372   1.821 -22.290  0.00  0.00    +0.025 A 
ATOM      4  C   UNL     1       0.838   2.336 -22.461  0.00  0.00    -0.021 A 
ATOM      5  C   UNL     1       0.816   3.409 -22.975  0.00  0.00    +0.009 A 
ATOM      6  C   UNL     1       0.076   3.951 -23.199  0.00  0.00    +0.019 C 
ATOM      7  C   UNL     1      -0.720   4.812 -23.573  0.00  0.00    +0.063 C 
ATOM      8  C   UNL     1      -1.957   4.516 -23.369  0.00  0.00    +0.132 C 
ATOM      9  N   UNL     1      -2.181   3.345 -22.795  0.00  0.00    +0.236 N 
ATOM     10  H   UNL     1      -2.444   2.463 -22.358  0.00  0.00    +0.203 HD
ATOM     11  C   UNL     1      -1.138   2.665 -22.521  0.00  0.00    +0.072 C 
ATOM     12  C   UNL     1      -3.336   3.048 -22.596  0.00  0.00    +0.190 C 
ATOM     13  C   UNL     1       1.481   3.576 -23.089  0.00  0.00    +0.086 C 
ATOM     14  C   UNL     1       1.833   2.322 -22.503  0.00  0.00    +0.134 C 
ATOM     15  O   UNL     1       1.448   0.713 -21.711  0.00  0.00    -0.297 OA
ATOM     16  C   UNL     1       1.127   1.582 -22.113  0.00  0.00    +0.075 C 
ATOM     17  C   UNL     1       0.160   1.779 -22.160  0.00  0.00    +0.017 C 
ATOM     18  C   UNL     1      -0.394   3.077 -22.755  0.00  0.00    +0.050 C 
ATOM     19  C   UNL     1      -0.623   1.898 -22.177  0.00  0.00    +0.091 C 
ATOM     20 BR   UNL     1       4.016   2.022 -22.468  0.00  0.00    -0.050 Br
ATOM     21  C   UNL     1       1.885   4.141 -23.380  0.00  0.00    +0.163 A 
ENDROOT
BRANCH   1  23
ATOM     22  C   UNL     1       4.778   5.133 -22.798  0.00  0.00    +0.277 C 
ATOM     23  O   UNL     1       4.004   4.522 -23.669  0.00  0.00    -0.491 OA
ENDBRANCH   1  23
BRANCH  21  24
ATOM     24  O   UNL     1       1.884   5.392 -23.981  0.00  0.00    -0.503 OA
ATOM     25  H   UNL     1       1.083   5.873 -24.059  0.00  0.00    +0.292 HD
ENDBRANCH  21  24
TORSDOF 2
ENDMDL
