MODEL 1
REMARK VINA RESULT:    -9.284      0.000      0.000
REMARK INTER + INTRA:         -10.118
REMARK INTER:                 -11.027
REMARK INTRA:                   0.909
REMARK UNBOUND:                 0.795
REMARK  Name = ZINC000096316340
REMARK  5 active torsions:
REMARK  status: ('A' for Active; 'I' for Inactive)
REMARK    1  A    between atoms: C_1  and  O_2
REMARK    2  A    between atoms: O_2  and  C_3
REMARK    3  A    between atoms: C_11  and  O_12
REMARK    4  A    between atoms: O_12  and  C_13
REMARK    5  A    between atoms: C_13  and  C_14
REMARK                            x       y       z     vdW  Elec       q    Type
REMARK                         _______ _______ _______ _____ _____    ______ ____
ROOT
ATOM      1  C   UNL     1       1.702   2.254 -23.793  0.00  0.00    +0.162 A 
ATOM      2  C   UNL     1       1.967   1.781 -22.645  0.00  0.00    +0.050 A 
ATOM      3  C   UNL     1       1.070   1.686 -21.772  0.00  0.00    +0.008 A 
ATOM      4  C   UNL     1      -0.100   2.063 -22.037  0.00  0.00    -0.038 A 
ATOM      5  C   UNL     1      -0.387   2.537 -23.173  0.00  0.00    +0.012 A 
ATOM      6  C   UNL     1      -1.555   2.911 -23.430  0.00  0.00    +0.050 C 
ATOM      7  C   UNL     1      -2.847   3.369 -23.843  0.00  0.00    +0.035 C 
ATOM      8  C   UNL     1      -3.881   3.275 -22.879  0.00  0.00    +0.109 C 
ATOM      9  N   UNL     1      -3.548   2.743 -21.610  0.00  0.00    -0.300 N 
ATOM     10  C   UNL     1      -4.419   2.628 -20.699  0.00  0.00    +0.328 C 
ATOM     11  O   UNL     1      -4.114   2.153 -19.574  0.00  0.00    -0.279 OA
ATOM     12  C   UNL     1      -2.188   2.345 -21.414  0.00  0.00    +0.088 C 
ATOM     13  C   UNL     1      -2.456   2.818 -22.561  0.00  0.00    +0.047 C 
ATOM     14  C   UNL     1      -3.639   3.197 -22.823  0.00  0.00    -0.021 C 
ATOM     15  C   UNL     1      -3.907   3.666 -23.958  0.00  0.00    +0.017 C 
ATOM     16  C   UNL     1      -3.006   3.764 -24.844  0.00  0.00    +0.240 C 
ATOM     17  C   UNL     1      -1.837   3.388 -24.580  0.00  0.00    +0.229 C 
ATOM     18  O   UNL     1      -0.415   3.224 -25.081  0.00  0.00    -0.480 OA
ATOM     19  C   UNL     1      -1.019   1.969 -21.151  0.00  0.00    +0.058 C 
ATOM     20  C   UNL     1       0.517   2.634 -24.056  0.00  0.00    +0.167 A 
ENDROOT
BRANCH   1  22
ATOM     21  C   UNL     1       3.809   2.237 -24.332  0.00  0.00    +0.277 C 
ATOM     22  O   UNL     1       2.603   2.346 -24.662  0.00  0.00    -0.491 OA
ENDBRANCH   1  22
BRANCH  16  23
ATOM     23  O   UNL     1      -3.280   4.234 -25.975  0.00  0.00    -0.454 OA
BRANCH  23  24
ATOM     24  C   UNL     1      -3.743   3.484 -26.871  0.00  0.00    +0.305 C 
ATOM     25  O   UNL     1      -4.712   2.727 -26.616  0.00  0.00    -0.251 OA
ATOM     26  C   UNL     1      -3.237   3.492 -28.020  0.00  0.00    +0.136 C 
ENDBRANCH  23  24
ENDBRANCH  16  23
TORSDOF 3
ENDMDL
MODEL 2
REMARK VINA RESULT:    -9.117      1.708      4.093
REMARK INTER + INTRA:          -9.921
REMARK INTER:                 -10.760
REMARK INTRA:                   0.840
REMARK UNBOUND:                 0.795
REMARK  Name = ZINC000096316340
REMARK  5 active torsions:
REMARK  status: ('A' for Active; 'I' for Inactive)
REMARK    1  A    between atoms: C_1  and  O_2
REMARK    2  A    between atoms: O_2  and  C_3
REMARK    3  A    between atoms: C_11  and  O_12
REMARK    4  A    between atoms: O_12  and  C_13
REMARK    5  A    between atoms: C_13  and  C_14
REMARK                            x       y       z     vdW  Elec       q    Type
REMARK                         _______ _______ _______ _____ _____    ______ ____
ROOT
ATOM      1  C   UNL     1       2.250   2.904 -22.871  0.00  0.00    +0.162 A 
ATOM      2  C   UNL     1       2.734   3.144 -24.020  0.00  0.00    +0.050 A 
ATOM      3  C   UNL     1       1.976   3.318 -25.005  0.00  0.00    +0.008 A 
ATOM      4  C   UNL     1       0.730   3.255 -24.854  0.00  0.00    -0.038 A 
ATOM      5  C   UNL     1       0.226   3.017 -23.719  0.00  0.00    +0.012 A 
ATOM      6  C   UNL     1      -1.017   2.956 -23.574  0.00  0.00    +0.050 C 
ATOM      7  C   UNL     1      -2.416   2.861 -23.283  0.00  0.00    +0.035 C 
ATOM      8  C   UNL     1      -3.296   3.053 -24.376  0.00  0.00    +0.109 C 
ATOM      9  N   UNL     1      -2.721   3.318 -25.643  0.00  0.00    -0.300 N 
ATOM     10  C   UNL     1      -3.445   3.501 -26.666  0.00  0.00    +0.328 C 
ATOM     11  O   UNL     1      -2.924   3.736 -27.787  0.00  0.00    -0.279 OA
ATOM     12  C   UNL     1      -1.293   3.369 -25.705  0.00  0.00    +0.088 C 
ATOM     13  C   UNL     1      -1.779   3.129 -24.557  0.00  0.00    +0.047 C 
ATOM     14  C   UNL     1      -3.038   3.066 -24.409  0.00  0.00    -0.021 C 
ATOM     15  C   UNL     1      -3.522   2.829 -23.274  0.00  0.00    +0.017 C 
ATOM     16  C   UNL     1      -2.763   2.652 -22.274  0.00  0.00    +0.240 C 
ATOM     17  C   UNL     1      -1.518   2.715 -22.425  0.00  0.00    +0.229 C 
ATOM     18  O   UNL     1      -0.155   2.622 -21.766  0.00  0.00    -0.480 OA
ATOM     19  C   UNL     1      -0.048   3.431 -25.855  0.00  0.00    +0.058 C 
ATOM     20  C   UNL     1       0.988   2.841 -22.722  0.00  0.00    +0.167 A 
ENDROOT
BRANCH   1  22
ATOM     21  C   UNL     1       3.146   1.585 -21.391  0.00  0.00    +0.277 C 
ATOM     22  O   UNL     1       3.011   2.731 -21.888  0.00  0.00    -0.491 OA
ENDBRANCH   1  22
BRANCH  16  23
ATOM     23  O   UNL     1      -3.252   2.416 -21.142  0.00  0.00    -0.454 OA
BRANCH  23  24
ATOM     24  C   UNL     1      -3.740   3.353 -20.460  0.00  0.00    +0.305 C 
ATOM     25  O   UNL     1      -4.824   3.882 -20.807  0.00  0.00    -0.251 OA
ATOM     26  C   UNL     1      -3.142   3.758 -19.434  0.00  0.00    +0.136 C 
ENDBRANCH  23  24
ENDBRANCH  16  23
TORSDOF 3
ENDMDL
MODEL 3
REMARK VINA RESULT:    -7.866      3.448      7.266
REMARK INTER + INTRA:          -8.450
REMARK INTER:                  -9.224
REMARK INTRA:                   0.774
REMARK UNBOUND:                 0.795
REMARK  Name = ZINC000096316340
REMARK  5 active torsions:
REMARK  status: ('A' for Active; 'I' for Inactive)
REMARK    1  A    between atoms: C_1  and  O_2
REMARK    2  A    between atoms: O_2  and  C_3
REMARK    3  A    between atoms: C_11  and  O_12
REMARK    4  A    between atoms: O_12  and  C_13
REMARK    5  A    between atoms: C_13  and  C_14
REMARK                            x       y       z     vdW  Elec       q    Type
REMARK                         _______ _______ _______ _____ _____    ______ ____
ROOT
ATOM      1  C   UNL     1       0.011   3.677 -23.435  0.00  0.00    +0.162 A 
ATOM      2  C   UNL     1      -0.545   2.627 -22.987  0.00  0.00    +0.050 A 
ATOM      3  C   UNL     1       0.133   1.750 -22.398  0.00  0.00    +0.008 A 
ATOM      4  C   UNL     1       1.370   1.912 -22.250  0.00  0.00    -0.038 A 
ATOM      5  C   UNL     1       1.945   2.950 -22.687  0.00  0.00    +0.012 A 
ATOM      6  C   UNL     1       3.179   3.106 -22.536  0.00  0.00    +0.050 C 
ATOM      7  C   UNL     1       4.577   3.398 -22.425  0.00  0.00    +0.035 C 
ATOM      8  C   UNL     1       5.367   2.426 -21.764  0.00  0.00    +0.109 C 
ATOM      9  N   UNL     1       4.713   1.268 -21.279  0.00  0.00    -0.300 N 
ATOM     10  C   UNL     1       5.355   0.357 -20.678  0.00  0.00    +0.328 C 
ATOM     11  O   UNL     1       4.765  -0.669 -20.249  0.00  0.00    -0.279 OA
ATOM     12  C   UNL     1       3.303   1.183 -21.500  0.00  0.00    +0.088 C 
ATOM     13  C   UNL     1       3.861   2.232 -21.947  0.00  0.00    +0.047 C 
ATOM     14  C   UNL     1       5.111   2.392 -21.795  0.00  0.00    -0.021 C 
ATOM     15  C   UNL     1       5.667   3.429 -22.236  0.00  0.00    +0.017 C 
ATOM     16  C   UNL     1       4.989   4.319 -22.832  0.00  0.00    +0.240 C 
ATOM     17  C   UNL     1       3.752   4.157 -22.981  0.00  0.00    +0.229 C 
ATOM     18  O   UNL     1       2.455   4.725 -23.525  0.00  0.00    -0.480 OA
ATOM     19  C   UNL     1       2.067   1.022 -21.649  0.00  0.00    +0.058 C 
ATOM     20  C   UNL     1       1.264   3.837 -23.282  0.00  0.00    +0.167 A 
ENDROOT
BRANCH   1  22
ATOM     21  C   UNL     1      -1.925   4.488 -24.007  0.00  0.00    +0.277 C 
ATOM     22  O   UNL     1      -0.670   4.551 -24.024  0.00  0.00    -0.491 OA
ENDBRANCH   1  22
BRANCH  16  23
ATOM     23  O   UNL     1       5.549   5.353 -23.271  0.00  0.00    -0.454 OA
BRANCH  23  24
ATOM     24  C   UNL     1       5.993   6.214 -22.470  0.00  0.00    +0.305 C 
ATOM     25  O   UNL     1       5.204   6.836 -21.717  0.00  0.00    -0.251 OA
ATOM     26  C   UNL     1       7.225   6.452 -22.424  0.00  0.00    +0.136 C 
ENDBRANCH  23  24
ENDBRANCH  16  23
TORSDOF 3
ENDMDL
MODEL 4
REMARK VINA RESULT:    -7.546      1.231      4.679
REMARK INTER + INTRA:          -8.075
REMARK INTER:                  -8.910
REMARK INTRA:                   0.836
REMARK UNBOUND:                 0.795
REMARK  Name = ZINC000096316340
REMARK  5 active torsions:
REMARK  status: ('A' for Active; 'I' for Inactive)
REMARK    1  A    between atoms: C_1  and  O_2
REMARK    2  A    between atoms: O_2  and  C_3
REMARK    3  A    between atoms: C_11  and  O_12
REMARK    4  A    between atoms: O_12  and  C_13
REMARK    5  A    between atoms: C_13  and  C_14
REMARK                            x       y       z     vdW  Elec       q    Type
REMARK                         _______ _______ _______ _____ _____    ______ ____
ROOT
ATOM      1  C   UNL     1      -4.222   3.156 -26.235  0.00  0.00    +0.162 A 
ATOM      2  C   UNL     1      -5.304   3.543 -25.694  0.00  0.00    +0.050 A 
ATOM      3  C   UNL     1      -5.371   3.707 -24.451  0.00  0.00    +0.008 A 
ATOM      4  C   UNL     1      -4.360   3.487 -23.737  0.00  0.00    -0.038 A 
ATOM      5  C   UNL     1      -3.273   3.101 -24.254  0.00  0.00    +0.012 A 
ATOM      6  C   UNL     1      -2.269   2.883 -23.536  0.00  0.00    +0.050 C 
ATOM      7  C   UNL     1      -1.058   2.602 -22.825  0.00  0.00    +0.035 C 
ATOM      8  C   UNL     1      -1.104   2.779 -21.420  0.00  0.00    +0.109 C 
ATOM      9  N   UNL     1      -2.326   3.211 -20.853  0.00  0.00    -0.300 N 
ATOM     10  C   UNL     1      -2.442   3.391 -19.604  0.00  0.00    +0.328 C 
ATOM     11  O   UNL     1      -3.533   3.776 -19.109  0.00  0.00    -0.279 OA
ATOM     12  C   UNL     1      -3.414   3.433 -21.754  0.00  0.00    +0.088 C 
ATOM     13  C   UNL     1      -2.331   3.046 -22.293  0.00  0.00    +0.047 C 
ATOM     14  C   UNL     1      -1.313   2.825 -21.567  0.00  0.00    -0.021 C 
ATOM     15  C   UNL     1      -0.240   2.441 -22.097  0.00  0.00    +0.017 C 
ATOM     16  C   UNL     1      -0.165   2.273 -23.352  0.00  0.00    +0.240 C 
ATOM     17  C   UNL     1      -1.175   2.493 -24.066  0.00  0.00    +0.229 C 
ATOM     18  O   UNL     1      -1.759   2.506 -25.465  0.00  0.00    -0.480 OA
ATOM     19  C   UNL     1      -4.423   3.653 -22.470  0.00  0.00    +0.058 C 
ATOM     20  C   UNL     1      -3.202   2.934 -25.508  0.00  0.00    +0.167 A 
ENDROOT
BRANCH   1  22
ATOM     21  C   UNL     1      -3.296   3.607 -28.151  0.00  0.00    +0.277 C 
ATOM     22  O   UNL     1      -4.160   2.993 -27.477  0.00  0.00    -0.491 OA
ENDBRANCH   1  22
BRANCH  16  23
ATOM     23  O   UNL     1       0.909   1.890 -23.875  0.00  0.00    -0.454 OA
BRANCH  23  24
ATOM     24  C   UNL     1       1.628   2.707 -24.505  0.00  0.00    +0.305 C 
ATOM     25  O   UNL     1       1.600   2.728 -25.760  0.00  0.00    -0.251 OA
ATOM     26  C   UNL     1       2.371   3.501 -23.879  0.00  0.00    +0.136 C 
ENDBRANCH  23  24
ENDBRANCH  16  23
TORSDOF 3
ENDMDL
MODEL 5
REMARK VINA RESULT:    -7.265      3.566      5.984
REMARK INTER + INTRA:          -7.744
REMARK INTER:                  -8.927
REMARK INTRA:                   1.183
REMARK UNBOUND:                 0.795
REMARK  Name = ZINC000096316340
REMARK  5 active torsions:
REMARK  status: ('A' for Active; 'I' for Inactive)
REMARK    1  A    between atoms: C_1  and  O_2
REMARK    2  A    between atoms: O_2  and  C_3
REMARK    3  A    between atoms: C_11  and  O_12
REMARK    4  A    between atoms: O_12  and  C_13
REMARK    5  A    between atoms: C_13  and  C_14
REMARK                            x       y       z     vdW  Elec       q    Type
REMARK                         _______ _______ _______ _____ _____    ______ ____
ROOT
ATOM      1  C   UNL     1       5.492   6.459 -22.114  0.00  0.00    +0.162 A 
ATOM      2  C   UNL     1       6.502   5.699 -22.240  0.00  0.00    +0.050 A 
ATOM      3  C   UNL     1       6.378   4.556 -22.742  0.00  0.00    +0.008 A 
ATOM      4  C   UNL     1       5.247   4.159 -23.122  0.00  0.00    -0.038 A 
ATOM      5  C   UNL     1       4.228   4.898 -23.006  0.00  0.00    +0.012 A 
ATOM      6  C   UNL     1       3.104   4.497 -23.386  0.00  0.00    +0.050 C 
ATOM      7  C   UNL     1       1.771   4.153 -23.782  0.00  0.00    +0.035 C 
ATOM      8  C   UNL     1       1.601   2.868 -24.352  0.00  0.00    +0.109 C 
ATOM      9  N   UNL     1       2.749   2.049 -24.477  0.00  0.00    -0.300 N 
ATOM     10  C   UNL     1       2.674   0.887 -24.977  0.00  0.00    +0.328 C 
ATOM     11  O   UNL     1       3.700   0.166 -25.084  0.00  0.00    -0.279 OA
ATOM     12  C   UNL     1       3.986   2.596 -24.014  0.00  0.00    +0.088 C 
ATOM     13  C   UNL     1       2.975   3.354 -23.888  0.00  0.00    +0.047 C 
ATOM     14  C   UNL     1       1.836   2.949 -24.273  0.00  0.00    -0.021 C 
ATOM     15  C   UNL     1       0.833   3.697 -24.151  0.00  0.00    +0.017 C 
ATOM     16  C   UNL     1       0.950   4.854 -23.645  0.00  0.00    +0.240 C 
ATOM     17  C   UNL     1       2.080   5.250 -23.265  0.00  0.00    +0.229 C 
ATOM     18  O   UNL     1       2.885   6.374 -22.643  0.00  0.00    -0.480 OA
ATOM     19  C   UNL     1       5.115   2.994 -23.634  0.00  0.00    +0.058 C 
ATOM     20  C   UNL     1       4.350   6.054 -22.500  0.00  0.00    +0.167 A 
ENDROOT
BRANCH   1  22
ATOM     21  C   UNL     1       6.660   7.895 -20.971  0.00  0.00    +0.277 C 
ATOM     22  O   UNL     1       5.620   7.602 -21.612  0.00  0.00    -0.491 OA
ENDBRANCH   1  22
BRANCH  16  23
ATOM     23  O   UNL     1      -0.055   5.596 -23.525  0.00  0.00    -0.454 OA
BRANCH  23  24
ATOM     24  C   UNL     1      -1.170   5.100 -23.227  0.00  0.00    +0.305 C 
ATOM     25  O   UNL     1      -2.022   4.887 -24.124  0.00  0.00    -0.251 OA
ATOM     26  C   UNL     1      -1.432   4.818 -22.032  0.00  0.00    +0.136 C 
ENDBRANCH  23  24
ENDBRANCH  16  23
TORSDOF 3
ENDMDL
MODEL 6
REMARK VINA RESULT:    -6.871      5.258      8.472
REMARK INTER + INTRA:          -7.281
REMARK INTER:                  -8.090
REMARK INTRA:                   0.809
REMARK UNBOUND:                 0.795
REMARK  Name = ZINC000096316340
REMARK  5 active torsions:
REMARK  status: ('A' for Active; 'I' for Inactive)
REMARK    1  A    between atoms: C_1  and  O_2
REMARK    2  A    between atoms: O_2  and  C_3
REMARK    3  A    between atoms: C_11  and  O_12
REMARK    4  A    between atoms: O_12  and  C_13
REMARK    5  A    between atoms: C_13  and  C_14
REMARK                            x       y       z     vdW  Elec       q    Type
REMARK                         _______ _______ _______ _____ _____    ______ ____
ROOT
ATOM      1  C   UNL     1       4.965   8.544 -21.551  0.00  0.00    +0.162 A 
ATOM      2  C   UNL     1       6.200   8.837 -21.502  0.00  0.00    +0.050 A 
ATOM      3  C   UNL     1       7.067   8.003 -21.859  0.00  0.00    +0.008 A 
ATOM      4  C   UNL     1       6.710   6.869 -22.268  0.00  0.00    -0.038 A 
ATOM      5  C   UNL     1       5.487   6.555 -22.326  0.00  0.00    +0.012 A 
ATOM      6  C   UNL     1       5.138   5.423 -22.735  0.00  0.00    +0.050 C 
ATOM      7  C   UNL     1       4.617   4.167 -23.183  0.00  0.00    +0.035 C 
ATOM      8  C   UNL     1       5.572   3.205 -23.592  0.00  0.00    +0.109 C 
ATOM      9  N   UNL     1       6.939   3.567 -23.524  0.00  0.00    -0.300 N 
ATOM     10  C   UNL     1       7.849   2.758 -23.873  0.00  0.00    +0.328 C 
ATOM     11  O   UNL     1       9.061   3.089 -23.809  0.00  0.00    -0.279 OA
ATOM     12  C   UNL     1       7.235   4.881 -23.043  0.00  0.00    +0.088 C 
ATOM     13  C   UNL     1       6.001   4.585 -23.093  0.00  0.00    +0.047 C 
ATOM     14  C   UNL     1       5.646   3.439 -23.508  0.00  0.00    -0.021 C 
ATOM     15  C   UNL     1       4.426   3.144 -23.559  0.00  0.00    +0.017 C 
ATOM     16  C   UNL     1       3.545   3.982 -23.199  0.00  0.00    +0.240 C 
ATOM     17  C   UNL     1       3.901   5.115 -22.790  0.00  0.00    +0.229 C 
ATOM     18  O   UNL     1       3.462   6.466 -22.259  0.00  0.00    -0.480 OA
ATOM     19  C   UNL     1       7.590   6.014 -22.634  0.00  0.00    +0.058 C 
ATOM     20  C   UNL     1       4.610   7.396 -21.966  0.00  0.00    +0.167 A 
ENDROOT
BRANCH   1  22
ATOM     21  C   UNL     1       4.389  10.254 -20.336  0.00  0.00    +0.277 C 
ATOM     22  O   UNL     1       4.102   9.382 -21.193  0.00  0.00    -0.491 OA
ENDBRANCH   1  22
BRANCH  16  23
ATOM     23  O   UNL     1       2.327   3.681 -23.252  0.00  0.00    -0.454 OA
BRANCH  23  24
ATOM     24  C   UNL     1       1.608   4.136 -24.177  0.00  0.00    +0.305 C 
ATOM     25  O   UNL     1       1.018   5.235 -24.030  0.00  0.00    -0.251 OA
ATOM     26  C   UNL     1       1.479   3.492 -25.247  0.00  0.00    +0.136 C 
ENDBRANCH  23  24
ENDBRANCH  16  23
TORSDOF 3
ENDMDL
MODEL 7
REMARK VINA RESULT:    -6.550      4.061      6.576
REMARK INTER + INTRA:          -6.904
REMARK INTER:                  -8.226
REMARK INTRA:                   1.322
REMARK UNBOUND:                 0.795
REMARK  Name = ZINC000096316340
REMARK  5 active torsions:
REMARK  status: ('A' for Active; 'I' for Inactive)
REMARK    1  A    between atoms: C_1  and  O_2
REMARK    2  A    between atoms: O_2  and  C_3
REMARK    3  A    between atoms: C_11  and  O_12
REMARK    4  A    between atoms: O_12  and  C_13
REMARK    5  A    between atoms: C_13  and  C_14
REMARK                            x       y       z     vdW  Elec       q    Type
REMARK                         _______ _______ _______ _____ _____    ______ ____
ROOT
ATOM      1  C   UNL     1       6.823   6.355 -22.177  0.00  0.00    +0.162 A 
ATOM      2  C   UNL     1       7.674   5.644 -21.557  0.00  0.00    +0.050 A 
ATOM      3  C   UNL     1       7.408   4.456 -21.251  0.00  0.00    +0.008 A 
ATOM      4  C   UNL     1       6.292   3.967 -21.559  0.00  0.00    -0.038 A 
ATOM      5  C   UNL     1       5.430   4.656 -22.176  0.00  0.00    +0.012 A 
ATOM      6  C   UNL     1       4.319   4.161 -22.481  0.00  0.00    +0.050 C 
ATOM      7  C   UNL     1       3.021   3.712 -22.883  0.00  0.00    +0.035 C 
ATOM      8  C   UNL     1       2.693   2.375 -22.550  0.00  0.00    +0.109 C 
ATOM      9  N   UNL     1       3.665   1.613 -21.859  0.00  0.00    -0.300 N 
ATOM     10  C   UNL     1       3.442   0.411 -21.529  0.00  0.00    +0.328 C 
ATOM     11  O   UNL     1       4.314  -0.259 -20.915  0.00  0.00    -0.279 OA
ATOM     12  C   UNL     1       4.901   2.265 -21.557  0.00  0.00    +0.088 C 
ATOM     13  C   UNL     1       4.049   2.974 -22.177  0.00  0.00    +0.047 C 
ATOM     14  C   UNL     1       2.924   2.475 -22.486  0.00  0.00    -0.021 C 
ATOM     15  C   UNL     1       2.078   3.174 -23.099  0.00  0.00    +0.017 C 
ATOM     16  C   UNL     1       2.340   4.374 -23.412  0.00  0.00    +0.240 C 
ATOM     17  C   UNL     1       3.455   4.864 -23.104  0.00  0.00    +0.229 C 
ATOM     18  O   UNL     1       4.360   6.080 -23.145  0.00  0.00    -0.480 OA
ATOM     19  C   UNL     1       6.015   2.756 -21.249  0.00  0.00    +0.058 C 
ATOM     20  C   UNL     1       5.696   5.855 -22.487  0.00  0.00    +0.167 A 
ENDROOT
BRANCH   1  22
ATOM     21  C   UNL     1       6.692   8.485 -21.756  0.00  0.00    +0.277 C 
ATOM     22  O   UNL     1       7.094   7.542 -22.482  0.00  0.00    -0.491 OA
ENDBRANCH   1  22
BRANCH  16  23
ATOM     23  O   UNL     1       1.491   5.067 -24.025  0.00  0.00    -0.454 OA
BRANCH  23  24
ATOM     24  C   UNL     1       0.269   4.787 -23.936  0.00  0.00    +0.305 C 
ATOM     25  O   UNL     1      -0.265   4.034 -24.787  0.00  0.00    -0.251 OA
ATOM     26  C   UNL     1      -0.416   5.261 -22.997  0.00  0.00    +0.136 C 
ENDBRANCH  23  24
ENDBRANCH  16  23
TORSDOF 3
ENDMDL
MODEL 8
REMARK VINA RESULT:    -6.479      4.045      7.298
REMARK INTER + INTRA:          -6.820
REMARK INTER:                  -7.515
REMARK INTRA:                   0.695
REMARK UNBOUND:                 0.795
REMARK  Name = ZINC000096316340
REMARK  5 active torsions:
REMARK  status: ('A' for Active; 'I' for Inactive)
REMARK    1  A    between atoms: C_1  and  O_2
REMARK    2  A    between atoms: O_2  and  C_3
REMARK    3  A    between atoms: C_11  and  O_12
REMARK    4  A    between atoms: O_12  and  C_13
REMARK    5  A    between atoms: C_13  and  C_14
REMARK                            x       y       z     vdW  Elec       q    Type
REMARK                         _______ _______ _______ _____ _____    ______ ____
ROOT
ATOM      1  C   UNL     1       7.002   5.587 -21.824  0.00  0.00    +0.162 A 
ATOM      2  C   UNL     1       6.572   6.764 -22.033  0.00  0.00    +0.050 A 
ATOM      3  C   UNL     1       5.382   6.953 -22.385  0.00  0.00    +0.008 A 
ATOM      4  C   UNL     1       4.611   5.971 -22.532  0.00  0.00    -0.038 A 
ATOM      5  C   UNL     1       5.017   4.791 -22.329  0.00  0.00    +0.012 A 
ATOM      6  C   UNL     1       4.243   3.817 -22.477  0.00  0.00    +0.050 C 
ATOM      7  C   UNL     1       3.459   2.627 -22.612  0.00  0.00    +0.035 C 
ATOM      8  C   UNL     1       2.111   2.809 -23.009  0.00  0.00    +0.109 C 
ATOM      9  N   UNL     1       1.667   4.134 -23.233  0.00  0.00    -0.300 N 
ATOM     10  C   UNL     1       0.475   4.374 -23.589  0.00  0.00    +0.328 C 
ATOM     11  O   UNL     1       0.089   5.556 -23.785  0.00  0.00    -0.279 OA
ATOM     12  C   UNL     1       2.624   5.178 -23.038  0.00  0.00    +0.088 C 
ATOM     13  C   UNL     1       3.053   4.001 -22.829  0.00  0.00    +0.047 C 
ATOM     14  C   UNL     1       2.270   3.012 -22.978  0.00  0.00    -0.021 C 
ATOM     15  C   UNL     1       2.690   1.847 -22.773  0.00  0.00    +0.017 C 
ATOM     16  C   UNL     1       3.891   1.648 -22.417  0.00  0.00    +0.240 C 
ATOM     17  C   UNL     1       4.662   2.629 -22.271  0.00  0.00    +0.229 C 
ATOM     18  O   UNL     1       6.057   3.101 -21.909  0.00  0.00    -0.480 OA
ATOM     19  C   UNL     1       3.396   6.158 -22.891  0.00  0.00    +0.058 C 
ATOM     20  C   UNL     1       6.218   4.597 -21.974  0.00  0.00    +0.167 A 
ENDROOT
BRANCH   1  22
ATOM     21  C   UNL     1       8.545   5.645 -20.292  0.00  0.00    +0.277 C 
ATOM     22  O   UNL     1       8.193   5.403 -21.473  0.00  0.00    -0.491 OA
ENDBRANCH   1  22
BRANCH  16  23
ATOM     23  O   UNL     1       4.306   0.481 -22.214  0.00  0.00    -0.454 OA
BRANCH  23  24
ATOM     24  C   UNL     1       4.444   0.059 -21.037  0.00  0.00    +0.305 C 
ATOM     25  O   UNL     1       3.449  -0.007 -20.274  0.00  0.00    -0.251 OA
ATOM     26  C   UNL     1       5.576  -0.294 -20.627  0.00  0.00    +0.136 C 
ENDBRANCH  23  24
ENDBRANCH  16  23
TORSDOF 3
ENDMDL
MODEL 9
REMARK VINA RESULT:    -6.294      3.557      6.154
REMARK INTER + INTRA:          -6.603
REMARK INTER:                  -7.398
REMARK INTRA:                   0.795
REMARK UNBOUND:                 0.795
REMARK  Name = ZINC000096316340
REMARK  5 active torsions:
REMARK  status: ('A' for Active; 'I' for Inactive)
REMARK    1  A    between atoms: C_1  and  O_2
REMARK    2  A    between atoms: O_2  and  C_3
REMARK    3  A    between atoms: C_11  and  O_12
REMARK    4  A    between atoms: O_12  and  C_13
REMARK    5  A    between atoms: C_13  and  C_14
REMARK                            x       y       z     vdW  Elec       q    Type
REMARK                         _______ _______ _______ _____ _____    ______ ____
ROOT
ATOM      1  C   UNL     1       4.415   0.813 -21.772  0.00  0.00    +0.162 A 
ATOM      2  C   UNL     1       3.450  -0.009 -21.859  0.00  0.00    +0.050 A 
ATOM      3  C   UNL     1       2.314   0.379 -22.223  0.00  0.00    +0.008 A 
ATOM      4  C   UNL     1       2.129   1.590 -22.505  0.00  0.00    -0.038 A 
ATOM      5  C   UNL     1       3.074   2.426 -22.426  0.00  0.00    +0.012 A 
ATOM      6  C   UNL     1       2.883   3.632 -22.709  0.00  0.00    +0.050 C 
ATOM      7  C   UNL     1       2.791   5.030 -23.003  0.00  0.00    +0.035 C 
ATOM      8  C   UNL     1       1.520   5.498 -23.418  0.00  0.00    +0.109 C 
ATOM      9  N   UNL     1       0.468   4.553 -23.503  0.00  0.00    -0.300 N 
ATOM     10  C   UNL     1      -0.695   4.899 -23.866  0.00  0.00    +0.328 C 
ATOM     11  O   UNL     1      -1.623   4.051 -23.938  0.00  0.00    -0.279 OA
ATOM     12  C   UNL     1       0.786   3.202 -23.160  0.00  0.00    +0.088 C 
ATOM     13  C   UNL     1       1.749   4.025 -23.074  0.00  0.00    +0.047 C 
ATOM     14  C   UNL     1       1.557   5.247 -23.360  0.00  0.00    -0.021 C 
ATOM     15  C   UNL     1       2.507   6.065 -23.276  0.00  0.00    +0.017 C 
ATOM     16  C   UNL     1       3.658   5.679 -22.908  0.00  0.00    +0.240 C 
ATOM     17  C   UNL     1       3.843   4.469 -22.626  0.00  0.00    +0.229 C 
ATOM     18  O   UNL     1       4.829   3.411 -22.170  0.00  0.00    -0.480 OA
ATOM     19  C   UNL     1       0.972   1.993 -22.878  0.00  0.00    +0.058 C 
ATOM     20  C   UNL     1       4.223   2.037 -22.058  0.00  0.00    +0.167 A 
ENDROOT
BRANCH   1  22
ATOM     21  C   UNL     1       5.656  -0.416 -20.475  0.00  0.00    +0.277 C 
ATOM     22  O   UNL     1       5.549   0.419 -21.407  0.00  0.00    -0.491 OA
ENDBRANCH   1  22
BRANCH  16  23
ATOM     23  O   UNL     1       4.604   6.501 -22.826  0.00  0.00    -0.454 OA
BRANCH  23  24
ATOM     24  C   UNL     1       4.791   7.140 -21.760  0.00  0.00    +0.305 C 
ATOM     25  O   UNL     1       5.588   6.699 -20.897  0.00  0.00    -0.251 OA
ATOM     26  C   UNL     1       4.180   8.218 -21.560  0.00  0.00    +0.136 C 
ENDBRANCH  23  24
ENDBRANCH  16  23
TORSDOF 3
ENDMDL
