MODEL 1
REMARK VINA RESULT:   -10.087      0.000      0.000
REMARK INTER + INTRA:         -10.087
REMARK INTER:                 -10.087
REMARK INTRA:                   0.000
REMARK UNBOUND:                 0.000
REMARK  Name = ZINC000003897049
REMARK  1 active torsions:
REMARK  status: ('A' for Active; 'I' for Inactive)
REMARK    1  A    between atoms: C_8  and  C_9
REMARK                            x       y       z     vdW  Elec       q    Type
REMARK                         _______ _______ _______ _____ _____    ______ ____
ROOT
ATOM      1  C   UNL     1       0.467   1.497 -21.061  0.00  0.00    +0.020 C 
ATOM      2  C   UNL     1       0.125   2.021 -22.200  0.00  0.00    +0.036 C 
ATOM      3  C   UNL     1       0.915   2.241 -23.208  0.00  0.00    +0.335 C 
ATOM      4  O   UNL     1       0.211   2.772 -24.163  0.00  0.00    -0.457 OA
ATOM      5  C   UNL     1      -1.015   2.880 -23.744  0.00  0.00    +0.185 C 
ATOM      6  C   UNL     1      -2.090   3.342 -24.311  0.00  0.00    +0.052 C 
ATOM      7  C   UNL     1      -3.219   3.340 -23.666  0.00  0.00    -0.022 C 
ATOM      8  C   UNL     1      -4.293   3.801 -24.233  0.00  0.00    +0.007 C 
ATOM      9  C   UNL     1      -5.421   3.798 -23.587  0.00  0.00    +0.005 C 
ATOM     10  C   UNL     1      -5.474   3.334 -22.374  0.00  0.00    +0.030 C 
ATOM     11  C   UNL     1      -4.400   2.872 -21.806  0.00  0.00    -0.073 C 
ATOM     12  C   UNL     1      -4.453   2.408 -20.593  0.00  0.00    +0.008 C 
ATOM     13  C   UNL     1      -3.165   3.804 -24.879  0.00  0.00    +0.012 C 
ATOM     14  C   UNL     1      -3.271   2.875 -22.452  0.00  0.00    +0.021 C 
ATOM     15  C   UNL     1      -2.196   2.413 -21.885  0.00  0.00    +0.020 C 
ATOM     16  O   UNL     1       2.187   1.976 -23.254  0.00  0.00    -0.245 OA
ATOM     17  C   UNL     1      -1.069   2.416 -22.531  0.00  0.00    +0.067 C 
ENDROOT
TORSDOF 0
ENDMDL
MODEL 2
REMARK VINA RESULT:   -10.031      0.956      2.535
REMARK INTER + INTRA:         -10.031
REMARK INTER:                 -10.031
REMARK INTRA:                   0.000
REMARK UNBOUND:                 0.000
REMARK  Name = ZINC000003897049
REMARK  1 active torsions:
REMARK  status: ('A' for Active; 'I' for Inactive)
REMARK    1  A    between atoms: C_8  and  C_9
REMARK                            x       y       z     vdW  Elec       q    Type
REMARK                         _______ _______ _______ _____ _____    ______ ____
ROOT
ATOM      1  C   UNL     1       0.547   3.371 -25.121  0.00  0.00    +0.020 C 
ATOM      2  C   UNL     1       0.121   3.031 -23.941  0.00  0.00    +0.036 C 
ATOM      3  C   UNL     1       0.852   2.579 -22.965  0.00  0.00    +0.335 C 
ATOM      4  O   UNL     1       0.071   2.352 -21.951  0.00  0.00    -0.457 OA
ATOM      5  C   UNL     1      -1.142   2.664 -22.299  0.00  0.00    +0.185 C 
ATOM      6  C   UNL     1      -2.270   2.620 -21.656  0.00  0.00    +0.052 C 
ATOM      7  C   UNL     1      -3.368   2.996 -22.241  0.00  0.00    -0.022 C 
ATOM      8  C   UNL     1      -4.496   2.952 -21.597  0.00  0.00    +0.007 C 
ATOM      9  C   UNL     1      -5.594   3.328 -22.183  0.00  0.00    +0.005 C 
ATOM     10  C   UNL     1      -5.563   3.748 -23.413  0.00  0.00    +0.030 C 
ATOM     11  C   UNL     1      -4.435   3.792 -24.058  0.00  0.00    -0.073 C 
ATOM     12  C   UNL     1      -4.405   4.211 -25.288  0.00  0.00    +0.008 C 
ATOM     13  C   UNL     1      -3.399   2.576 -21.011  0.00  0.00    +0.012 C 
ATOM     14  C   UNL     1      -3.337   3.416 -23.472  0.00  0.00    +0.021 C 
ATOM     15  C   UNL     1      -2.209   3.460 -24.116  0.00  0.00    +0.020 C 
ATOM     16  O   UNL     1       2.137   2.387 -22.999  0.00  0.00    -0.245 OA
ATOM     17  C   UNL     1      -1.111   3.084 -23.530  0.00  0.00    +0.067 C 
ENDROOT
TORSDOF 0
ENDMDL
MODEL 3
REMARK VINA RESULT:    -9.544      2.249      5.291
REMARK INTER + INTRA:          -9.544
REMARK INTER:                  -9.544
REMARK INTRA:                   0.000
REMARK UNBOUND:                 0.000
REMARK  Name = ZINC000003897049
REMARK  1 active torsions:
REMARK  status: ('A' for Active; 'I' for Inactive)
REMARK    1  A    between atoms: C_8  and  C_9
REMARK                            x       y       z     vdW  Elec       q    Type
REMARK                         _______ _______ _______ _____ _____    ______ ____
ROOT
ATOM      1  C   UNL     1      -4.746   4.169 -24.213  0.00  0.00    +0.020 C 
ATOM      2  C   UNL     1      -4.269   3.521 -23.192  0.00  0.00    +0.036 C 
ATOM      3  C   UNL     1      -4.941   3.137 -22.148  0.00  0.00    +0.335 C 
ATOM      4  O   UNL     1      -4.123   2.522 -21.347  0.00  0.00    -0.457 OA
ATOM      5  C   UNL     1      -2.945   2.526 -21.896  0.00  0.00    +0.185 C 
ATOM      6  C   UNL     1      -1.802   2.046 -21.505  0.00  0.00    +0.052 C 
ATOM      7  C   UNL     1      -0.747   2.184 -22.254  0.00  0.00    -0.022 C 
ATOM      8  C   UNL     1       0.396   1.705 -21.863  0.00  0.00    +0.007 C 
ATOM      9  C   UNL     1       1.449   1.844 -22.612  0.00  0.00    +0.005 C 
ATOM     10  C   UNL     1       1.359   2.461 -23.752  0.00  0.00    +0.030 C 
ATOM     11  C   UNL     1       0.216   2.941 -24.144  0.00  0.00    -0.073 C 
ATOM     12  C   UNL     1       0.126   3.559 -25.284  0.00  0.00    +0.008 C 
ATOM     13  C   UNL     1      -0.658   1.567 -21.113  0.00  0.00    +0.012 C 
ATOM     14  C   UNL     1      -0.838   2.803 -23.395  0.00  0.00    +0.021 C 
ATOM     15  C   UNL     1      -1.981   3.282 -23.786  0.00  0.00    +0.020 C 
ATOM     16  O   UNL     1      -6.210   3.334 -21.942  0.00  0.00    -0.245 OA
ATOM     17  C   UNL     1      -3.035   3.143 -23.037  0.00  0.00    +0.067 C 
ENDROOT
TORSDOF 0
ENDMDL
MODEL 4
REMARK VINA RESULT:    -9.467      2.127      4.640
REMARK INTER + INTRA:          -9.467
REMARK INTER:                  -9.467
REMARK INTRA:                   0.000
REMARK UNBOUND:                 0.000
REMARK  Name = ZINC000003897049
REMARK  1 active torsions:
REMARK  status: ('A' for Active; 'I' for Inactive)
REMARK    1  A    between atoms: C_8  and  C_9
REMARK                            x       y       z     vdW  Elec       q    Type
REMARK                         _______ _______ _______ _____ _____    ______ ____
ROOT
ATOM      1  C   UNL     1      -4.166   2.269 -20.572  0.00  0.00    +0.020 C 
ATOM      2  C   UNL     1      -3.985   2.780 -21.753  0.00  0.00    +0.036 C 
ATOM      3  C   UNL     1      -4.897   3.342 -22.490  0.00  0.00    +0.335 C 
ATOM      4  O   UNL     1      -4.336   3.729 -23.597  0.00  0.00    -0.457 OA
ATOM      5  C   UNL     1      -3.078   3.405 -23.544  0.00  0.00    +0.185 C 
ATOM      6  C   UNL     1      -2.102   3.569 -24.387  0.00  0.00    +0.052 C 
ATOM      7  C   UNL     1      -0.908   3.146 -24.091  0.00  0.00    -0.022 C 
ATOM      8  C   UNL     1       0.068   3.310 -24.933  0.00  0.00    +0.007 C 
ATOM      9  C   UNL     1       1.260   2.887 -24.636  0.00  0.00    +0.005 C 
ATOM     10  C   UNL     1       1.477   2.301 -23.496  0.00  0.00    +0.030 C 
ATOM     11  C   UNL     1       0.501   2.137 -22.652  0.00  0.00    -0.073 C 
ATOM     12  C   UNL     1       0.718   1.551 -21.512  0.00  0.00    +0.008 C 
ATOM     13  C   UNL     1      -1.125   3.733 -25.230  0.00  0.00    +0.012 C 
ATOM     14  C   UNL     1      -0.692   2.560 -22.949  0.00  0.00    +0.021 C 
ATOM     15  C   UNL     1      -1.668   2.396 -22.107  0.00  0.00    +0.020 C 
ATOM     16  O   UNL     1      -6.149   3.492 -22.175  0.00  0.00    -0.245 OA
ATOM     17  C   UNL     1      -2.861   2.819 -22.404  0.00  0.00    +0.067 C 
ENDROOT
TORSDOF 0
ENDMDL
MODEL 5
REMARK VINA RESULT:    -8.847      1.982      4.827
REMARK INTER + INTRA:          -8.847
REMARK INTER:                  -8.847
REMARK INTRA:                   0.000
REMARK UNBOUND:                 0.000
REMARK  Name = ZINC000003897049
REMARK  1 active torsions:
REMARK  status: ('A' for Active; 'I' for Inactive)
REMARK    1  A    between atoms: C_8  and  C_9
REMARK                            x       y       z     vdW  Elec       q    Type
REMARK                         _______ _______ _______ _____ _____    ______ ____
ROOT
ATOM      1  C   UNL     1      -4.459   3.365 -22.844  0.00  0.00    +0.020 C 
ATOM      2  C   UNL     1      -3.595   3.629 -23.778  0.00  0.00    +0.036 C 
ATOM      3  C   UNL     1      -3.841   4.246 -24.895  0.00  0.00    +0.335 C 
ATOM      4  O   UNL     1      -2.730   4.320 -25.566  0.00  0.00    -0.457 OA
ATOM      5  C   UNL     1      -1.797   3.749 -24.863  0.00  0.00    +0.185 C 
ATOM      6  C   UNL     1      -0.531   3.563 -25.087  0.00  0.00    +0.052 C 
ATOM      7  C   UNL     1       0.203   2.949 -24.206  0.00  0.00    -0.022 C 
ATOM      8  C   UNL     1       1.469   2.763 -24.430  0.00  0.00    +0.007 C 
ATOM      9  C   UNL     1       2.202   2.150 -23.549  0.00  0.00    +0.005 C 
ATOM     10  C   UNL     1       1.668   1.722 -22.444  0.00  0.00    +0.030 C 
ATOM     11  C   UNL     1       0.401   1.908 -22.219  0.00  0.00    -0.073 C 
ATOM     12  C   UNL     1      -0.134   1.481 -21.113  0.00  0.00    +0.008 C 
ATOM     13  C   UNL     1       0.737   3.377 -25.312  0.00  0.00    +0.012 C 
ATOM     14  C   UNL     1      -0.333   2.522 -23.100  0.00  0.00    +0.021 C 
ATOM     15  C   UNL     1      -1.599   2.708 -22.876  0.00  0.00    +0.020 C 
ATOM     16  O   UNL     1      -4.995   4.708 -25.274  0.00  0.00    -0.245 OA
ATOM     17  C   UNL     1      -2.332   3.322 -23.758  0.00  0.00    +0.067 C 
ENDROOT
TORSDOF 0
ENDMDL
MODEL 6
REMARK VINA RESULT:    -8.639      2.084      3.798
REMARK INTER + INTRA:          -8.639
REMARK INTER:                  -8.639
REMARK INTRA:                   0.000
REMARK UNBOUND:                 0.000
REMARK  Name = ZINC000003897049
REMARK  1 active torsions:
REMARK  status: ('A' for Active; 'I' for Inactive)
REMARK    1  A    between atoms: C_8  and  C_9
REMARK                            x       y       z     vdW  Elec       q    Type
REMARK                         _______ _______ _______ _____ _____    ______ ____
ROOT
ATOM      1  C   UNL     1       3.936   3.209 -23.567  0.00  0.00    +0.020 C 
ATOM      2  C   UNL     1       3.195   2.363 -22.915  0.00  0.00    +0.036 C 
ATOM      3  C   UNL     1       3.592   1.240 -22.396  0.00  0.00    +0.335 C 
ATOM      4  O   UNL     1       2.568   0.676 -21.828  0.00  0.00    -0.457 OA
ATOM      5  C   UNL     1       1.538   1.450 -21.997  0.00  0.00    +0.185 C 
ATOM      6  C   UNL     1       0.297   1.340 -21.625  0.00  0.00    +0.052 C 
ATOM      7  C   UNL     1      -0.557   2.273 -21.925  0.00  0.00    -0.022 C 
ATOM      8  C   UNL     1      -1.798   2.162 -21.553  0.00  0.00    +0.007 C 
ATOM      9  C   UNL     1      -2.651   3.096 -21.854  0.00  0.00    +0.005 C 
ATOM     10  C   UNL     1      -2.264   4.139 -22.526  0.00  0.00    +0.030 C 
ATOM     11  C   UNL     1      -1.024   4.250 -22.898  0.00  0.00    -0.073 C 
ATOM     12  C   UNL     1      -0.637   5.293 -23.570  0.00  0.00    +0.008 C 
ATOM     13  C   UNL     1      -0.944   1.229 -21.253  0.00  0.00    +0.012 C 
ATOM     14  C   UNL     1      -0.169   3.316 -22.598  0.00  0.00    +0.021 C 
ATOM     15  C   UNL     1       1.071   3.427 -22.969  0.00  0.00    +0.020 C 
ATOM     16  O   UNL     1       4.802   0.765 -22.437  0.00  0.00    -0.245 OA
ATOM     17  C   UNL     1       1.925   2.493 -22.669  0.00  0.00    +0.067 C 
ENDROOT
TORSDOF 0
ENDMDL
MODEL 7
REMARK VINA RESULT:    -8.191      2.087      5.108
REMARK INTER + INTRA:          -8.191
REMARK INTER:                  -8.191
REMARK INTRA:                   0.000
REMARK UNBOUND:                 0.000
REMARK  Name = ZINC000003897049
REMARK  1 active torsions:
REMARK  status: ('A' for Active; 'I' for Inactive)
REMARK    1  A    between atoms: C_8  and  C_9
REMARK                            x       y       z     vdW  Elec       q    Type
REMARK                         _______ _______ _______ _____ _____    ______ ____
ROOT
ATOM      1  C   UNL     1      -2.806   2.020 -21.261  0.00  0.00    +0.020 C 
ATOM      2  C   UNL     1      -2.412   2.784 -22.236  0.00  0.00    +0.036 C 
ATOM      3  C   UNL     1      -3.178   3.504 -23.000  0.00  0.00    +0.335 C 
ATOM      4  O   UNL     1      -2.421   4.126 -23.855  0.00  0.00    -0.457 OA
ATOM      5  C   UNL     1      -1.188   3.789 -23.619  0.00  0.00    +0.185 C 
ATOM      6  C   UNL     1      -0.070   4.131 -24.186  0.00  0.00    +0.052 C 
ATOM      7  C   UNL     1       1.055   3.644 -23.753  0.00  0.00    -0.022 C 
ATOM      8  C   UNL     1       2.174   3.986 -24.320  0.00  0.00    +0.007 C 
ATOM      9  C   UNL     1       3.298   3.498 -23.887  0.00  0.00    +0.005 C 
ATOM     10  C   UNL     1       3.303   2.668 -22.886  0.00  0.00    +0.030 C 
ATOM     11  C   UNL     1       2.185   2.326 -22.318  0.00  0.00    -0.073 C 
ATOM     12  C   UNL     1       2.191   1.496 -21.317  0.00  0.00    +0.008 C 
ATOM     13  C   UNL     1       1.050   4.474 -24.754  0.00  0.00    +0.012 C 
ATOM     14  C   UNL     1       1.060   2.814 -22.752  0.00  0.00    +0.021 C 
ATOM     15  C   UNL     1      -0.058   2.472 -22.184  0.00  0.00    +0.020 C 
ATOM     16  O   UNL     1      -4.473   3.588 -22.923  0.00  0.00    -0.245 OA
ATOM     17  C   UNL     1      -1.182   2.960 -22.618  0.00  0.00    +0.067 C 
ENDROOT
TORSDOF 0
ENDMDL
MODEL 8
REMARK VINA RESULT:    -7.906      2.875      6.713
REMARK INTER + INTRA:          -7.906
REMARK INTER:                  -7.906
REMARK INTRA:                   0.000
REMARK UNBOUND:                 0.000
REMARK  Name = ZINC000003897049
REMARK  1 active torsions:
REMARK  status: ('A' for Active; 'I' for Inactive)
REMARK    1  A    between atoms: C_8  and  C_9
REMARK                            x       y       z     vdW  Elec       q    Type
REMARK                         _______ _______ _______ _____ _____    ______ ____
ROOT
ATOM      1  C   UNL     1      -0.309   4.845 -23.611  0.00  0.00    +0.020 C 
ATOM      2  C   UNL     1      -0.049   3.616 -23.277  0.00  0.00    +0.036 C 
ATOM      3  C   UNL     1      -0.921   2.664 -23.127  0.00  0.00    +0.335 C 
ATOM      4  O   UNL     1      -0.282   1.583 -22.792  0.00  0.00    -0.457 OA
ATOM      5  C   UNL     1       0.986   1.868 -22.735  0.00  0.00    +0.185 C 
ATOM      6  C   UNL     1       2.027   1.145 -22.448  0.00  0.00    +0.052 C 
ATOM      7  C   UNL     1       3.213   1.678 -22.461  0.00  0.00    -0.022 C 
ATOM      8  C   UNL     1       4.254   0.955 -22.175  0.00  0.00    +0.007 C 
ATOM      9  C   UNL     1       5.439   1.489 -22.188  0.00  0.00    +0.005 C 
ATOM     10  C   UNL     1       5.583   2.745 -22.488  0.00  0.00    +0.030 C 
ATOM     11  C   UNL     1       4.542   3.469 -22.774  0.00  0.00    -0.073 C 
ATOM     12  C   UNL     1       4.685   4.726 -23.074  0.00  0.00    +0.008 C 
ATOM     13  C   UNL     1       3.069   0.421 -22.161  0.00  0.00    +0.012 C 
ATOM     14  C   UNL     1       3.356   2.936 -22.761  0.00  0.00    +0.021 C 
ATOM     15  C   UNL     1       2.314   3.659 -23.048  0.00  0.00    +0.020 C 
ATOM     16  O   UNL     1      -2.207   2.774 -23.285  0.00  0.00    -0.245 OA
ATOM     17  C   UNL     1       1.129   3.125 -23.035  0.00  0.00    +0.067 C 
ENDROOT
TORSDOF 0
ENDMDL
MODEL 9
REMARK VINA RESULT:    -7.689      2.939      6.442
REMARK INTER + INTRA:          -7.689
REMARK INTER:                  -7.689
REMARK INTRA:                   0.000
REMARK UNBOUND:                 0.000
REMARK  Name = ZINC000003897049
REMARK  1 active torsions:
REMARK  status: ('A' for Active; 'I' for Inactive)
REMARK    1  A    between atoms: C_8  and  C_9
REMARK                            x       y       z     vdW  Elec       q    Type
REMARK                         _______ _______ _______ _____ _____    ______ ____
ROOT
ATOM      1  C   UNL     1      -1.131   2.321 -22.734  0.00  0.00    +0.020 C 
ATOM      2  C   UNL     1      -0.304   3.272 -23.050  0.00  0.00    +0.036 C 
ATOM      3  C   UNL     1      -0.624   4.424 -23.560  0.00  0.00    +0.335 C 
ATOM      4  O   UNL     1       0.471   5.103 -23.736  0.00  0.00    -0.457 OA
ATOM      5  C   UNL     1       1.467   4.369 -23.336  0.00  0.00    +0.185 C 
ATOM      6  C   UNL     1       2.748   4.586 -23.303  0.00  0.00    +0.052 C 
ATOM      7  C   UNL     1       3.551   3.671 -22.845  0.00  0.00    -0.022 C 
ATOM      8  C   UNL     1       4.832   3.888 -22.812  0.00  0.00    +0.007 C 
ATOM      9  C   UNL     1       5.634   2.973 -22.355  0.00  0.00    +0.005 C 
ATOM     10  C   UNL     1       5.155   1.841 -21.930  0.00  0.00    +0.030 C 
ATOM     11  C   UNL     1       3.873   1.624 -21.963  0.00  0.00    -0.073 C 
ATOM     12  C   UNL     1       3.394   0.492 -21.539  0.00  0.00    +0.008 C 
ATOM     13  C   UNL     1       4.030   4.803 -23.269  0.00  0.00    +0.012 C 
ATOM     14  C   UNL     1       3.071   2.539 -22.421  0.00  0.00    +0.021 C 
ATOM     15  C   UNL     1       1.790   2.323 -22.454  0.00  0.00    +0.020 C 
ATOM     16  O   UNL     1      -1.827   4.828 -23.843  0.00  0.00    -0.245 OA
ATOM     17  C   UNL     1       0.988   3.238 -22.911  0.00  0.00    +0.067 C 
ENDROOT
TORSDOF 0
ENDMDL
