MODEL 1
REMARK VINA RESULT:    -9.864      0.000      0.000
REMARK INTER + INTRA:         -11.090
REMARK INTER:                 -11.450
REMARK INTRA:                   0.360
REMARK UNBOUND:                 1.081
REMARK  Name = Cc1ccsc1/C=C(/NC(=O)c1ccccc1)C(=O)N1C[C@H]2C[C@H](C1)c1cccc(=O)n1C2  ZINC000100392503
REMARK  5 active torsions:
REMARK  status: ('A' for Active; 'I' for Inactive)
REMARK    1  A    between atoms: C_1  and  C_2
REMARK    2  A    between atoms: C_6  and  C_7
REMARK    3  A    between atoms: C_8  and  N_9
REMARK    4  A    between atoms: C_8  and  C_18
REMARK    5  A    between atoms: C_10  and  C_12
REMARK                            x       y       z     vdW  Elec       q    Type
REMARK                         _______ _______ _______ _____ _____    ______ ____
ROOT
ATOM      1  C   UNL     1       3.333   3.542 -22.521  0.00  0.00    +0.044 C 
ATOM      2  C   UNL     1       2.730   4.609 -23.039  0.00  0.00    +0.097 C 
ENDROOT
BRANCH   2   3
ATOM      3  C   UNL     1       1.852   4.480 -24.035  0.00  0.00    +0.261 C 
ATOM      4  N   UNL     1       0.533   4.340 -23.776  0.00  0.00    -0.296 N 
ATOM      5  C   UNL     1       0.036   4.322 -22.523  0.00  0.00    +0.113 C 
ATOM      6  C   UNL     1      -1.251   4.179 -22.477  0.00  0.00    +0.027 C 
ATOM      7  C   UNL     1      -1.640   4.109 -23.340  0.00  0.00    +0.018 C 
ATOM      8  C   UNL     1      -1.609   4.084 -24.286  0.00  0.00    +0.054 C 
ATOM      9  C   UNL     1      -2.800   3.946 -24.421  0.00  0.00    +0.027 A 
ATOM     10  C   UNL     1      -3.589   3.827 -25.422  0.00  0.00    +0.022 A 
ATOM     11  C   UNL     1      -4.895   3.687 -25.215  0.00  0.00    +0.007 A 
ATOM     12  C   UNL     1      -5.422   3.666 -23.963  0.00  0.00    +0.070 A 
ATOM     13  C   UNL     1      -4.653   3.785 -22.883  0.00  0.00    +0.251 A 
ATOM     14  O   UNL     1      -5.187   3.762 -21.690  0.00  0.00    -0.268 OA
ATOM     15  N   UNL     1      -3.388   3.923 -23.011  0.00  0.00    -0.312 N 
ATOM     16  C   UNL     1      -2.298   4.080 -21.895  0.00  0.00    +0.130 C 
ATOM     17  C   UNL     1      -0.400   4.205 -24.747  0.00  0.00    +0.117 C 
ATOM     18  O   UNL     1       2.275   4.489 -25.271  0.00  0.00    -0.269 OA
ENDBRANCH   2   3
BRANCH   1  24
ATOM     19  C   UNL     1       1.717   1.553 -21.263  0.00  0.00    +0.045 C 
ATOM     20  C   UNL     1       2.339   1.430 -22.403  0.00  0.00    -0.036 A 
ATOM     21  C   UNL     1       2.333   0.374 -23.172  0.00  0.00    +0.011 A 
ATOM     22  C   UNL     1       3.065   0.631 -24.218  0.00  0.00    +0.046 A 
ATOM     23  S   UNL     1       3.527   1.847 -24.100  0.00  0.00    -0.097 S 
ATOM     24  C   UNL     1       3.078   2.340 -22.978  0.00  0.00    +0.017 A 
ENDBRANCH   1  24
BRANCH   2  25
ATOM     25  N   UNL     1       3.004   5.789 -22.564  0.00  0.00    -0.277 N 
ATOM     26  H   UNL     1       2.276   6.370 -22.241  0.00  0.00    +0.155 HD
ATOM     27  C   UNL     1       4.244   6.205 -22.514  0.00  0.00    +0.248 C 
ATOM     28  O   UNL     1       5.214   5.439 -22.940  0.00  0.00    -0.270 OA
BRANCH  27  29
ATOM     29  C   UNL     1       4.509   7.388 -22.036  0.00  0.00    +0.037 A 
ATOM     30  C   UNL     1       3.785   8.415 -22.388  0.00  0.00    +0.013 A 
ATOM     31  C   UNL     1       4.058   9.600 -21.904  0.00  0.00    +0.001 A 
ATOM     32  C   UNL     1       5.051   9.750 -21.072  0.00  0.00    +0.000 A 
ATOM     33  C   UNL     1       5.775   8.722 -20.721  0.00  0.00    +0.001 A 
ATOM     34  C   UNL     1       5.503   7.538 -21.205  0.00  0.00    +0.013 A 
ENDBRANCH  27  29
ENDBRANCH   2  25
TORSDOF 4
ENDMDL
MODEL 2
REMARK VINA RESULT:    -8.270      1.450      2.065
REMARK INTER + INTRA:          -9.122
REMARK INTER:                  -9.257
REMARK INTRA:                   0.134
REMARK UNBOUND:                 1.081
REMARK  Name = Cc1ccsc1/C=C(/NC(=O)c1ccccc1)C(=O)N1C[C@H]2C[C@H](C1)c1cccc(=O)n1C2  ZINC000100392503
REMARK  5 active torsions:
REMARK  status: ('A' for Active; 'I' for Inactive)
REMARK    1  A    between atoms: C_1  and  C_2
REMARK    2  A    between atoms: C_6  and  C_7
REMARK    3  A    between atoms: C_8  and  N_9
REMARK    4  A    between atoms: C_8  and  C_18
REMARK    5  A    between atoms: C_10  and  C_12
REMARK                            x       y       z     vdW  Elec       q    Type
REMARK                         _______ _______ _______ _____ _____    ______ ____
ROOT
ATOM      1  C   UNL     1       3.601   3.481 -24.116  0.00  0.00    +0.044 C 
ATOM      2  C   UNL     1       2.991   4.101 -23.109  0.00  0.00    +0.097 C 
ENDROOT
BRANCH   2   3
ATOM      3  C   UNL     1       2.063   3.475 -22.383  0.00  0.00    +0.261 C 
ATOM      4  N   UNL     1       0.750   3.631 -22.663  0.00  0.00    -0.296 N 
ATOM      5  C   UNL     1       0.309   4.410 -23.670  0.00  0.00    +0.113 C 
ATOM      6  C   UNL     1      -0.982   4.433 -23.782  0.00  0.00    +0.027 C 
ATOM      7  C   UNL     1      -1.413   3.892 -23.131  0.00  0.00    +0.018 C 
ATOM      8  C   UNL     1      -1.425   3.301 -22.391  0.00  0.00    +0.054 C 
ATOM      9  C   UNL     1      -2.627   3.212 -22.356  0.00  0.00    +0.027 A 
ATOM     10  C   UNL     1      -3.466   2.583 -21.621  0.00  0.00    +0.022 A 
ATOM     11  C   UNL     1      -4.768   2.706 -21.859  0.00  0.00    +0.007 A 
ATOM     12  C   UNL     1      -5.240   3.485 -22.867  0.00  0.00    +0.070 A 
ATOM     13  C   UNL     1      -4.418   4.163 -23.665  0.00  0.00    +0.251 A 
ATOM     14  O   UNL     1      -4.899   4.905 -24.627  0.00  0.00    -0.268 OA
ATOM     15  N   UNL     1      -3.153   4.089 -23.491  0.00  0.00    -0.312 N 
ATOM     16  C   UNL     1      -2.007   4.791 -24.297  0.00  0.00    +0.130 C 
ATOM     17  C   UNL     1      -0.231   3.020 -21.960  0.00  0.00    +0.117 C 
ATOM     18  O   UNL     1       2.432   2.705 -21.394  0.00  0.00    -0.269 OA
ENDBRANCH   2   3
BRANCH   1  24
ATOM     19  C   UNL     1       1.640   2.612 -25.999  0.00  0.00    +0.045 C 
ATOM     20  C   UNL     1       2.407   1.842 -25.278  0.00  0.00    -0.036 A 
ATOM     21  C   UNL     1       2.414   0.536 -25.289  0.00  0.00    +0.011 A 
ATOM     22  C   UNL     1       3.313   0.129 -24.438  0.00  0.00    +0.046 A 
ATOM     23  S   UNL     1       3.864   1.181 -23.898  0.00  0.00    -0.097 S 
ATOM     24  C   UNL     1       3.304   2.240 -24.417  0.00  0.00    +0.017 A 
ENDBRANCH   1  24
BRANCH   2  25
ATOM     25  N   UNL     1       3.308   5.333 -22.835  0.00  0.00    -0.277 N 
ATOM     26  H   UNL     1       2.647   6.052 -22.969  0.00  0.00    +0.155 HD
ATOM     27  C   UNL     1       4.502   5.619 -22.381  0.00  0.00    +0.248 C 
ATOM     28  O   UNL     1       5.382   4.670 -22.200  0.00  0.00    -0.270 OA
BRANCH  27  29
ATOM     29  C   UNL     1       4.810   6.855 -22.109  0.00  0.00    +0.037 A 
ATOM     30  C   UNL     1       3.893   7.783 -22.141  0.00  0.00    +0.013 A 
ATOM     31  C   UNL     1       4.210   9.023 -21.867  0.00  0.00    +0.001 A 
ATOM     32  C   UNL     1       5.442   9.326 -21.562  0.00  0.00    +0.000 A 
ATOM     33  C   UNL     1       6.358   8.398 -21.529  0.00  0.00    +0.001 A 
ATOM     34  C   UNL     1       6.041   7.159 -21.803  0.00  0.00    +0.013 A 
ENDBRANCH  27  29
ENDBRANCH   2  25
TORSDOF 4
ENDMDL
