MODEL 1
REMARK VINA RESULT:   -11.744      0.000      0.000
REMARK INTER + INTRA:         -13.303
REMARK INTER:                 -12.858
REMARK INTRA:                  -0.445
REMARK UNBOUND:                -0.186
REMARK  Name = ZINC000005427165
REMARK  4 active torsions:
REMARK  status: ('A' for Active; 'I' for Inactive)
REMARK    1  A    between atoms: C_1  and  C_2
REMARK    2  A    between atoms: C_7  and  C_8
REMARK    3  A    between atoms: C_16  and  C_17
REMARK    4  A    between atoms: C_17  and  N_18
REMARK                            x       y       z     vdW  Elec       q    Type
REMARK                         _______ _______ _______ _____ _____    ______ ____
ROOT
ATOM      1  C   UNL     1      -4.054   2.460 -20.509  0.00  0.00    +0.039 C 
ATOM      2  C   UNL     1      -4.339   2.903 -21.697  0.00  0.00    -0.067 C 
ATOM      3  C   UNL     1      -5.504   3.317 -22.100  0.00  0.00    -0.024 C 
ATOM      4  C   UNL     1      -5.395   3.679 -23.343  0.00  0.00    +0.065 C 
ATOM      5  C   UNL     1      -4.162   3.489 -23.709  0.00  0.00    +0.112 C 
ATOM      6  O   UNL     1      -4.968   3.970 -24.609  0.00  0.00    -0.360 OA
ATOM      7  C   UNL     1      -3.721   3.753 -24.904  0.00  0.00    +0.097 C 
ATOM      8  C   UNL     1      -2.519   3.603 -25.375  0.00  0.00    +0.038 C 
ATOM      9  C   UNL     1      -1.461   3.152 -24.770  0.00  0.00    +0.011 C 
ATOM     10  C   UNL     1      -1.343   2.738 -23.543  0.00  0.00    +0.049 C 
ATOM     11  C   UNL     1      -2.256   2.675 -22.618  0.00  0.00    +0.190 C 
ATOM     12  O   UNL     1      -1.703   2.201 -21.541  0.00  0.00    -0.460 OA
ATOM     13  C   UNL     1      -0.450   1.972 -21.800  0.00  0.00    +0.316 C 
ATOM     14  O   UNL     1       0.427   1.494 -20.967  0.00  0.00    -0.250 OA
ATOM     15  C   UNL     1      -0.229   2.304 -23.037  0.00  0.00    +0.149 C 
ATOM     16  C   UNL     1      -4.025   4.199 -26.087  0.00  0.00    +0.044 C 
ATOM     17  C   UNL     1      -3.510   3.009 -22.692  0.00  0.00    +0.090 C 
ENDROOT
BRANCH  15  18
ATOM     18  C   UNL     1       0.911   2.217 -23.659  0.00  0.00    +0.146 C 
BRANCH  18  19
ATOM     19  N   UNL     1       1.847   3.089 -23.428  0.00  0.00    +0.236 N 
ATOM     20  H   UNL     1       2.813   3.304 -23.184  0.00  0.00    +0.203 HD
ATOM     21  C   UNL     1       3.045   2.689 -23.120  0.00  0.00    +0.131 C 
ATOM     22  C   UNL     1       3.981   3.561 -22.889  0.00  0.00    +0.051 C 
ATOM     23  C   UNL     1       3.719   4.832 -22.965  0.00  0.00    +0.010 C 
ATOM     24  C   UNL     1       2.520   5.231 -23.273  0.00  0.00    +0.051 C 
ATOM     25  C   UNL     1       1.584   4.359 -23.504  0.00  0.00    +0.131 C 
ENDBRANCH  18  19
ENDBRANCH  15  18
TORSDOF 2
ENDMDL
MODEL 2
REMARK VINA RESULT:   -11.284      1.653      2.872
REMARK INTER + INTRA:         -12.789
REMARK INTER:                 -12.349
REMARK INTRA:                  -0.440
REMARK UNBOUND:                -0.186
REMARK  Name = ZINC000005427165
REMARK  4 active torsions:
REMARK  status: ('A' for Active; 'I' for Inactive)
REMARK    1  A    between atoms: C_1  and  C_2
REMARK    2  A    between atoms: C_7  and  C_8
REMARK    3  A    between atoms: C_16  and  C_17
REMARK    4  A    between atoms: C_17  and  N_18
REMARK                            x       y       z     vdW  Elec       q    Type
REMARK                         _______ _______ _______ _____ _____    ______ ____
ROOT
ATOM      1  C   UNL     1      -3.274   4.041 -26.281  0.00  0.00    +0.039 C 
ATOM      2  C   UNL     1      -3.688   3.838 -25.066  0.00  0.00    -0.067 C 
ATOM      3  C   UNL     1      -4.911   3.969 -24.643  0.00  0.00    -0.024 C 
ATOM      4  C   UNL     1      -4.931   3.681 -23.375  0.00  0.00    +0.065 C 
ATOM      5  C   UNL     1      -3.721   3.373 -23.015  0.00  0.00    +0.112 C 
ATOM      6  O   UNL     1      -4.633   3.330 -22.089  0.00  0.00    -0.360 OA
ATOM      7  C   UNL     1      -3.400   3.034 -21.801  0.00  0.00    +0.097 C 
ATOM      8  C   UNL     1      -2.232   2.709 -21.333  0.00  0.00    +0.038 C 
ATOM      9  C   UNL     1      -1.097   2.642 -21.961  0.00  0.00    +0.011 C 
ATOM     10  C   UNL     1      -0.848   2.884 -23.214  0.00  0.00    +0.049 C 
ATOM     11  C   UNL     1      -1.675   3.252 -24.148  0.00  0.00    +0.190 C 
ATOM     12  O   UNL     1      -1.001   3.381 -25.252  0.00  0.00    -0.460 OA
ATOM     13  C   UNL     1       0.241   3.092 -25.002  0.00  0.00    +0.316 C 
ATOM     14  O   UNL     1       1.218   3.107 -25.860  0.00  0.00    -0.250 OA
ATOM     15  C   UNL     1       0.335   2.785 -23.742  0.00  0.00    +0.149 C 
ATOM     16  C   UNL     1      -3.833   2.836 -20.591  0.00  0.00    +0.044 C 
ATOM     17  C   UNL     1      -2.953   3.470 -24.059  0.00  0.00    +0.090 C 
ENDROOT
BRANCH  15  18
ATOM     18  C   UNL     1       1.424   2.439 -23.119  0.00  0.00    +0.146 C 
BRANCH  18  19
ATOM     19  N   UNL     1       2.456   3.229 -23.126  0.00  0.00    +0.236 N 
ATOM     20  H   UNL     1       3.464   3.366 -23.206  0.00  0.00    +0.203 HD
ATOM     21  C   UNL     1       3.648   2.739 -23.296  0.00  0.00    +0.131 C 
ATOM     22  C   UNL     1       4.680   3.529 -23.302  0.00  0.00    +0.051 C 
ATOM     23  C   UNL     1       4.521   4.809 -23.139  0.00  0.00    +0.010 C 
ATOM     24  C   UNL     1       3.328   5.299 -22.969  0.00  0.00    +0.051 C 
ATOM     25  C   UNL     1       2.296   4.508 -22.963  0.00  0.00    +0.131 C 
ENDBRANCH  18  19
ENDBRANCH  15  18
TORSDOF 2
ENDMDL
MODEL 3
REMARK VINA RESULT:    -9.809      1.872      6.559
REMARK INTER + INTRA:         -11.142
REMARK INTER:                 -11.004
REMARK INTRA:                  -0.137
REMARK UNBOUND:                -0.186
REMARK  Name = ZINC000005427165
REMARK  4 active torsions:
REMARK  status: ('A' for Active; 'I' for Inactive)
REMARK    1  A    between atoms: C_1  and  C_2
REMARK    2  A    between atoms: C_7  and  C_8
REMARK    3  A    between atoms: C_16  and  C_17
REMARK    4  A    between atoms: C_17  and  N_18
REMARK                            x       y       z     vdW  Elec       q    Type
REMARK                         _______ _______ _______ _____ _____    ______ ____
ROOT
ATOM      1  C   UNL     1       2.642   0.408 -22.861  0.00  0.00    +0.039 C 
ATOM      2  C   UNL     1       3.161   1.599 -22.814  0.00  0.00    -0.067 C 
ATOM      3  C   UNL     1       4.415   1.879 -22.610  0.00  0.00    -0.024 C 
ATOM      4  C   UNL     1       4.547   3.172 -22.633  0.00  0.00    +0.065 C 
ATOM      5  C   UNL     1       3.376   3.691 -22.851  0.00  0.00    +0.112 C 
ATOM      6  O   UNL     1       4.364   4.524 -22.712  0.00  0.00    -0.360 OA
ATOM      7  C   UNL     1       3.164   4.971 -22.933  0.00  0.00    +0.097 C 
ATOM      8  C   UNL     1       2.043   5.596 -23.146  0.00  0.00    +0.038 C 
ATOM      9  C   UNL     1       0.859   5.094 -23.330  0.00  0.00    +0.011 C 
ATOM     10  C   UNL     1       0.501   3.845 -23.348  0.00  0.00    +0.049 C 
ATOM     11  C   UNL     1       1.240   2.788 -23.184  0.00  0.00    +0.190 C 
ATOM     12  O   UNL     1       0.472   1.742 -23.278  0.00  0.00    -0.460 OA
ATOM     13  C   UNL     1      -0.740   2.153 -23.500  0.00  0.00    +0.316 C 
ATOM     14  O   UNL     1      -1.787   1.398 -23.652  0.00  0.00    -0.250 OA
ATOM     15  C   UNL     1      -0.722   3.452 -23.543  0.00  0.00    +0.149 C 
ATOM     16  C   UNL     1       3.701   6.154 -22.883  0.00  0.00    +0.044 C 
ATOM     17  C   UNL     1       2.520   2.719 -22.963  0.00  0.00    +0.090 C 
ENDROOT
BRANCH  15  18
ATOM     18  C   UNL     1      -1.750   4.224 -23.745  0.00  0.00    +0.146 C 
BRANCH  18  19
ATOM     19  N   UNL     1      -2.885   3.961 -23.168  0.00  0.00    +0.236 N 
ATOM     20  H   UNL     1      -3.893   3.816 -23.226  0.00  0.00    +0.203 HD
ATOM     21  C   UNL     1      -3.974   3.904 -23.875  0.00  0.00    +0.131 C 
ATOM     22  C   UNL     1      -5.109   3.642 -23.298  0.00  0.00    +0.051 C 
ATOM     23  C   UNL     1      -5.155   3.436 -22.015  0.00  0.00    +0.010 C 
ATOM     24  C   UNL     1      -4.064   3.493 -21.309  0.00  0.00    +0.051 C 
ATOM     25  C   UNL     1      -2.929   3.756 -21.886  0.00  0.00    +0.131 C 
ENDBRANCH  18  19
ENDBRANCH  15  18
TORSDOF 2
ENDMDL
MODEL 4
REMARK VINA RESULT:    -9.501      2.114      6.892
REMARK INTER + INTRA:         -10.798
REMARK INTER:                 -10.358
REMARK INTRA:                  -0.440
REMARK UNBOUND:                -0.186
REMARK  Name = ZINC000005427165
REMARK  4 active torsions:
REMARK  status: ('A' for Active; 'I' for Inactive)
REMARK    1  A    between atoms: C_1  and  C_2
REMARK    2  A    between atoms: C_7  and  C_8
REMARK    3  A    between atoms: C_16  and  C_17
REMARK    4  A    between atoms: C_17  and  N_18
REMARK                            x       y       z     vdW  Elec       q    Type
REMARK                         _______ _______ _______ _____ _____    ______ ____
ROOT
ATOM      1  C   UNL     1       3.220   6.051 -23.240  0.00  0.00    +0.039 C 
ATOM      2  C   UNL     1       3.667   4.865 -22.954  0.00  0.00    -0.067 C 
ATOM      3  C   UNL     1       4.910   4.548 -22.735  0.00  0.00    -0.024 C 
ATOM      4  C   UNL     1       4.961   3.274 -22.483  0.00  0.00    +0.065 C 
ATOM      5  C   UNL     1       3.751   2.803 -22.547  0.00  0.00    +0.112 C 
ATOM      6  O   UNL     1       4.693   1.952 -22.263  0.00  0.00    -0.360 OA
ATOM      7  C   UNL     1       3.458   1.553 -22.343  0.00  0.00    +0.097 C 
ATOM      8  C   UNL     1       2.293   0.977 -22.380  0.00  0.00    +0.038 C 
ATOM      9  C   UNL     1       1.134   1.509 -22.630  0.00  0.00    +0.011 C 
ATOM     10  C   UNL     1       0.852   2.748 -22.905  0.00  0.00    +0.049 C 
ATOM     11  C   UNL     1       1.662   3.761 -22.997  0.00  0.00    +0.190 C 
ATOM     12  O   UNL     1       0.956   4.813 -23.289  0.00  0.00    -0.460 OA
ATOM     13  C   UNL     1      -0.289   4.451 -23.377  0.00  0.00    +0.316 C 
ATOM     14  O   UNL     1      -1.294   5.227 -23.655  0.00  0.00    -0.250 OA
ATOM     15  C   UNL     1      -0.352   3.174 -23.140  0.00  0.00    +0.149 C 
ATOM     16  C   UNL     1       3.924   0.373 -22.057  0.00  0.00    +0.044 C 
ATOM     17  C   UNL     1       2.952   3.786 -22.838  0.00  0.00    +0.090 C 
ENDROOT
BRANCH  15  18
ATOM     18  C   UNL     1      -1.433   2.450 -23.138  0.00  0.00    +0.146 C 
BRANCH  18  19
ATOM     19  N   UNL     1      -2.454   2.807 -22.415  0.00  0.00    +0.236 N 
ATOM     20  H   UNL     1      -3.442   3.046 -22.340  0.00  0.00    +0.203 HD
ATOM     21  C   UNL     1      -3.616   2.978 -22.973  0.00  0.00    +0.131 C 
ATOM     22  C   UNL     1      -4.636   3.334 -22.250  0.00  0.00    +0.051 C 
ATOM     23  C   UNL     1      -4.495   3.520 -20.971  0.00  0.00    +0.010 C 
ATOM     24  C   UNL     1      -3.332   3.349 -20.414  0.00  0.00    +0.051 C 
ATOM     25  C   UNL     1      -2.311   2.992 -21.137  0.00  0.00    +0.131 C 
ENDBRANCH  18  19
ENDBRANCH  15  18
TORSDOF 2
ENDMDL
MODEL 5
REMARK VINA RESULT:    -9.269      1.171      1.704
REMARK INTER + INTRA:         -10.539
REMARK INTER:                 -10.526
REMARK INTRA:                  -0.013
REMARK UNBOUND:                -0.186
REMARK  Name = ZINC000005427165
REMARK  4 active torsions:
REMARK  status: ('A' for Active; 'I' for Inactive)
REMARK    1  A    between atoms: C_1  and  C_2
REMARK    2  A    between atoms: C_7  and  C_8
REMARK    3  A    between atoms: C_16  and  C_17
REMARK    4  A    between atoms: C_17  and  N_18
REMARK                            x       y       z     vdW  Elec       q    Type
REMARK                         _______ _______ _______ _____ _____    ______ ____
ROOT
ATOM      1  C   UNL     1      -2.976   2.744 -20.293  0.00  0.00    +0.039 C 
ATOM      2  C   UNL     1      -3.138   3.089 -21.536  0.00  0.00    -0.067 C 
ATOM      3  C   UNL     1      -4.216   3.603 -22.052  0.00  0.00    -0.024 C 
ATOM      4  C   UNL     1      -3.995   3.813 -23.316  0.00  0.00    +0.065 C 
ATOM      5  C   UNL     1      -2.782   3.429 -23.581  0.00  0.00    +0.112 C 
ATOM      6  O   UNL     1      -3.470   3.910 -24.574  0.00  0.00    -0.360 OA
ATOM      7  C   UNL     1      -2.249   3.506 -24.764  0.00  0.00    +0.097 C 
ATOM      8  C   UNL     1      -1.054   3.155 -25.140  0.00  0.00    +0.038 C 
ATOM      9  C   UNL     1      -0.099   2.641 -24.425  0.00  0.00    +0.011 C 
ATOM     10  C   UNL     1      -0.100   2.350 -23.158  0.00  0.00    +0.049 C 
ATOM     11  C   UNL     1      -1.059   2.502 -22.293  0.00  0.00    +0.190 C 
ATOM     12  O   UNL     1      -0.630   2.080 -21.141  0.00  0.00    -0.460 OA
ATOM     13  C   UNL     1       0.593   1.667 -21.293  0.00  0.00    +0.316 C 
ATOM     14  O   UNL     1       1.355   1.174 -20.363  0.00  0.00    -0.250 OA
ATOM     15  C   UNL     1       0.920   1.834 -22.540  0.00  0.00    +0.149 C 
ATOM     16  C   UNL     1      -2.430   3.858 -26.003  0.00  0.00    +0.044 C 
ATOM     17  C   UNL     1      -2.252   2.982 -22.481  0.00  0.00    +0.090 C 
ENDROOT
BRANCH  15  18
ATOM     18  C   UNL     1       2.067   1.537 -23.076  0.00  0.00    +0.146 C 
BRANCH  18  19
ATOM     19  N   UNL     1       3.097   2.305 -22.876  0.00  0.00    +0.236 N 
ATOM     20  H   UNL     1       3.585   3.187 -23.034  0.00  0.00    +0.203 HD
ATOM     21  C   UNL     1       3.143   3.483 -23.425  0.00  0.00    +0.131 C 
ATOM     22  C   UNL     1       4.173   4.252 -23.226  0.00  0.00    +0.051 C 
ATOM     23  C   UNL     1       5.155   3.843 -22.478  0.00  0.00    +0.010 C 
ATOM     24  C   UNL     1       5.107   2.665 -21.930  0.00  0.00    +0.051 C 
ATOM     25  C   UNL     1       4.078   1.897 -22.129  0.00  0.00    +0.131 C 
ENDBRANCH  18  19
ENDBRANCH  15  18
TORSDOF 2
ENDMDL
MODEL 6
REMARK VINA RESULT:    -8.859      2.555      4.054
REMARK INTER + INTRA:         -10.081
REMARK INTER:                  -9.880
REMARK INTRA:                  -0.201
REMARK UNBOUND:                -0.186
REMARK  Name = ZINC000005427165
REMARK  4 active torsions:
REMARK  status: ('A' for Active; 'I' for Inactive)
REMARK    1  A    between atoms: C_1  and  C_2
REMARK    2  A    between atoms: C_7  and  C_8
REMARK    3  A    between atoms: C_16  and  C_17
REMARK    4  A    between atoms: C_17  and  N_18
REMARK                            x       y       z     vdW  Elec       q    Type
REMARK                         _______ _______ _______ _____ _____    ______ ____
ROOT
ATOM      1  C   UNL     1      -0.894   1.395 -21.021  0.00  0.00    +0.039 C 
ATOM      2  C   UNL     1      -0.796   2.079 -22.122  0.00  0.00    -0.067 C 
ATOM      3  C   UNL     1      -1.774   2.664 -22.748  0.00  0.00    -0.024 C 
ATOM      4  C   UNL     1      -1.286   3.246 -23.803  0.00  0.00    +0.065 C 
ATOM      5  C   UNL     1      -0.006   3.021 -23.829  0.00  0.00    +0.112 C 
ATOM      6  O   UNL     1      -0.491   3.733 -24.802  0.00  0.00    -0.360 OA
ATOM      7  C   UNL     1       0.781   3.468 -24.762  0.00  0.00    +0.097 C 
ATOM      8  C   UNL     1       2.066   3.306 -24.886  0.00  0.00    +0.038 C 
ATOM      9  C   UNL     1       2.879   2.656 -24.109  0.00  0.00    +0.011 C 
ATOM     10  C   UNL     1       2.611   2.007 -23.015  0.00  0.00    +0.049 C 
ATOM     11  C   UNL     1       1.461   1.849 -22.428  0.00  0.00    +0.190 C 
ATOM     12  O   UNL     1       1.651   1.132 -21.360  0.00  0.00    -0.460 OA
ATOM     13  C   UNL     1       2.917   0.847 -21.287  0.00  0.00    +0.316 C 
ATOM     14  O   UNL     1       3.490   0.144 -20.356  0.00  0.00    -0.250 OA
ATOM     15  C   UNL     1       3.510   1.388 -22.310  0.00  0.00    +0.149 C 
ATOM     16  C   UNL     1       0.860   4.156 -25.862  0.00  0.00    +0.044 C 
ATOM     17  C   UNL     1       0.297   2.300 -22.790  0.00  0.00    +0.090 C 
ENDROOT
BRANCH  15  18
ATOM     18  C   UNL     1       4.780   1.321 -22.580  0.00  0.00    +0.146 C 
BRANCH  18  19
ATOM     19  N   UNL     1       5.566   2.307 -22.262  0.00  0.00    +0.236 N 
ATOM     20  H   UNL     1       6.224   3.036 -22.537  0.00  0.00    +0.203 HD
ATOM     21  C   UNL     1       6.234   2.929 -23.188  0.00  0.00    +0.131 C 
ATOM     22  C   UNL     1       7.019   3.915 -22.870  0.00  0.00    +0.051 C 
ATOM     23  C   UNL     1       7.136   4.279 -21.628  0.00  0.00    +0.010 C 
ATOM     24  C   UNL     1       6.468   3.657 -20.702  0.00  0.00    +0.051 C 
ATOM     25  C   UNL     1       5.682   2.670 -21.020  0.00  0.00    +0.131 C 
ENDBRANCH  18  19
ENDBRANCH  15  18
TORSDOF 2
ENDMDL
