MODEL 1
REMARK VINA RESULT:    -8.023      0.000      0.000
REMARK INTER + INTRA:         -11.117
REMARK INTER:                 -10.889
REMARK INTRA:                  -0.228
REMARK UNBOUND:                -0.046
REMARK  Name = ZINC000000338232
REMARK  11 active torsions:
REMARK  status: ('A' for Active; 'I' for Inactive)
REMARK    1  A    between atoms: C_1  and  O_2
REMARK    2  A    between atoms: O_2  and  C_3
REMARK    3  A    between atoms: C_5  and  O_6
REMARK    4  A    between atoms: O_6  and  C_7
REMARK    5  A    between atoms: C_15  and  C_16
REMARK    6  A    between atoms: C_16  and  C_17
REMARK    7  A    between atoms: C_17  and  O_18
REMARK    8  A    between atoms: C_17  and  C_19
REMARK    9  A    between atoms: C_19  and  C_20
REMARK   10  A    between atoms: C_19  and  C_21
REMARK   11  A    between atoms: C_19  and  O_22
REMARK                            x       y       z     vdW  Elec       q    Type
REMARK                         _______ _______ _______ _____ _____    ______ ____
ROOT
ATOM      1  C   UNL     1      -0.989   2.801 -22.503  0.00  0.00    +0.130 A 
ATOM      2  C   UNL     1      -2.106   3.014 -21.871  0.00  0.00    +0.092 A 
ATOM      3  C   UNL     1      -3.186   3.293 -22.537  0.00  0.00    +0.134 A 
ATOM      4  C   UNL     1      -3.153   3.360 -23.834  0.00  0.00    +0.060 A 
ATOM      5  C   UNL     1      -4.234   3.639 -24.499  0.00  0.00    +0.022 A 
ATOM      6  C   UNL     1      -4.200   3.706 -25.797  0.00  0.00    +0.093 A 
ATOM      7  C   UNL     1      -3.084   3.493 -26.430  0.00  0.00    +0.337 A 
ATOM      8  O   UNL     1      -2.003   3.214 -25.764  0.00  0.00    -0.422 OA
ATOM      9  O   UNL     1      -3.050   3.560 -27.727  0.00  0.00    -0.245 OA
ATOM     10  C   UNL     1      -2.036   3.147 -24.467  0.00  0.00    +0.149 A 
ATOM     11  C   UNL     1      -0.955   2.868 -23.802  0.00  0.00    +0.040 A 
ENDROOT
BRANCH   3  12
ATOM     12  O   UNL     1      -4.302   3.506 -21.904  0.00  0.00    -0.494 OA
ATOM     13  C   UNL     1      -4.769   2.608 -21.087  0.00  0.00    +0.277 C 
ENDBRANCH   3  12
BRANCH   1  15
ATOM     14  C   UNL     1       0.110   1.509 -21.023  0.00  0.00    +0.277 C 
ATOM     15  O   UNL     1       0.092   2.521 -21.838  0.00  0.00    -0.495 OA
ENDBRANCH   1  15
BRANCH  11  16
ATOM     16  C   UNL     1       0.160   2.655 -24.435  0.00  0.00    +0.076 C 
BRANCH  16  17
ATOM     17  C   UNL     1       0.865   3.659 -24.864  0.00  0.00    +0.150 C 
BRANCH  17  18
ATOM     18  C   UNL     1       1.735   4.224 -24.080  0.00  0.00    +0.087 C 
ATOM     19  C   UNL     1       2.784   3.564 -23.689  0.00  0.00    +0.043 C 
ATOM     20  C   UNL     1       2.134   5.259 -23.401  0.00  0.00    +0.043 C 
BRANCH  18  21
ATOM     21  O   UNL     1       1.025   5.314 -24.079  0.00  0.00    -0.387 OA
ATOM     22  H   UNL     1       0.561   5.399 -24.926  0.00  0.00    +0.210 HD
ENDBRANCH  18  21
ENDBRANCH  17  18
BRANCH  17  23
ATOM     23  O   UNL     1       0.700   4.098 -26.076  0.00  0.00    -0.389 OA
ATOM     24  H   UNL     1       0.555   3.348 -26.674  0.00  0.00    +0.210 HD
ENDBRANCH  17  23
ENDBRANCH  16  17
ENDBRANCH  11  16
TORSDOF 7
ENDMDL
MODEL 2
REMARK VINA RESULT:    -7.994      1.670      3.977
REMARK INTER + INTRA:         -11.077
REMARK INTER:                 -10.698
REMARK INTRA:                  -0.379
REMARK UNBOUND:                -0.046
REMARK  Name = ZINC000000338232
REMARK  11 active torsions:
REMARK  status: ('A' for Active; 'I' for Inactive)
REMARK    1  A    between atoms: C_1  and  O_2
REMARK    2  A    between atoms: O_2  and  C_3
REMARK    3  A    between atoms: C_5  and  O_6
REMARK    4  A    between atoms: O_6  and  C_7
REMARK    5  A    between atoms: C_15  and  C_16
REMARK    6  A    between atoms: C_16  and  C_17
REMARK    7  A    between atoms: C_17  and  O_18
REMARK    8  A    between atoms: C_17  and  C_19
REMARK    9  A    between atoms: C_19  and  C_20
REMARK   10  A    between atoms: C_19  and  C_21
REMARK   11  A    between atoms: C_19  and  O_22
REMARK                            x       y       z     vdW  Elec       q    Type
REMARK                         _______ _______ _______ _____ _____    ______ ____
ROOT
ATOM      1  C   UNL     1      -0.647   3.222 -24.537  0.00  0.00    +0.130 A 
ATOM      2  C   UNL     1      -1.687   3.455 -25.283  0.00  0.00    +0.092 A 
ATOM      3  C   UNL     1      -2.855   3.616 -24.738  0.00  0.00    +0.134 A 
ATOM      4  C   UNL     1      -2.986   3.545 -23.447  0.00  0.00    +0.060 A 
ATOM      5  C   UNL     1      -4.155   3.706 -22.902  0.00  0.00    +0.022 A 
ATOM      6  C   UNL     1      -4.285   3.635 -21.610  0.00  0.00    +0.093 A 
ATOM      7  C   UNL     1      -3.247   3.402 -20.864  0.00  0.00    +0.337 A 
ATOM      8  O   UNL     1      -2.077   3.241 -21.409  0.00  0.00    -0.422 OA
ATOM      9  O   UNL     1      -3.377   3.331 -19.572  0.00  0.00    -0.245 OA
ATOM     10  C   UNL     1      -1.946   3.312 -22.700  0.00  0.00    +0.149 A 
ATOM     11  C   UNL     1      -0.778   3.151 -23.245  0.00  0.00    +0.040 A 
ENDROOT
BRANCH   3  12
ATOM     12  O   UNL     1      -3.894   3.849 -25.484  0.00  0.00    -0.494 OA
ATOM     13  C   UNL     1      -4.254   2.984 -26.385  0.00  0.00    +0.277 C 
ENDBRANCH   3  12
BRANCH   1  15
ATOM     14  C   UNL     1       1.165   4.086 -25.557  0.00  0.00    +0.277 C 
ATOM     15  O   UNL     1       0.522   3.061 -25.082  0.00  0.00    -0.495 OA
ENDBRANCH   1  15
BRANCH  11  16
ATOM     16  C   UNL     1       0.261   2.918 -22.499  0.00  0.00    +0.076 C 
BRANCH  16  17
ATOM     17  C   UNL     1       0.616   1.694 -22.243  0.00  0.00    +0.150 C 
BRANCH  17  18
ATOM     18  C   UNL     1       1.876   1.386 -22.168  0.00  0.00    +0.087 C 
ATOM     19  C   UNL     1       2.524   1.563 -21.056  0.00  0.00    +0.043 C 
ATOM     20  C   UNL     1       2.959   0.927 -22.725  0.00  0.00    +0.043 C 
BRANCH  18  21
ATOM     21  O   UNL     1       1.857   1.003 -23.410  0.00  0.00    -0.387 OA
ATOM     22  H   UNL     1       1.139   0.364 -23.541  0.00  0.00    +0.210 HD
ENDBRANCH  18  21
ENDBRANCH  17  18
BRANCH  17  23
ATOM     23  O   UNL     1      -0.289   0.779 -22.063  0.00  0.00    -0.389 OA
ATOM     24  H   UNL     1      -0.504   0.719 -21.119  0.00  0.00    +0.210 HD
ENDBRANCH  17  23
ENDBRANCH  16  17
ENDBRANCH  11  16
TORSDOF 7
ENDMDL
MODEL 3
REMARK VINA RESULT:    -7.655      1.479      4.600
REMARK INTER + INTRA:         -10.610
REMARK INTER:                 -10.757
REMARK INTRA:                   0.147
REMARK UNBOUND:                -0.046
REMARK  Name = ZINC000000338232
REMARK  11 active torsions:
REMARK  status: ('A' for Active; 'I' for Inactive)
REMARK    1  A    between atoms: C_1  and  O_2
REMARK    2  A    between atoms: O_2  and  C_3
REMARK    3  A    between atoms: C_5  and  O_6
REMARK    4  A    between atoms: O_6  and  C_7
REMARK    5  A    between atoms: C_15  and  C_16
REMARK    6  A    between atoms: C_16  and  C_17
REMARK    7  A    between atoms: C_17  and  O_18
REMARK    8  A    between atoms: C_17  and  C_19
REMARK    9  A    between atoms: C_19  and  C_20
REMARK   10  A    between atoms: C_19  and  C_21
REMARK   11  A    between atoms: C_19  and  O_22
REMARK                            x       y       z     vdW  Elec       q    Type
REMARK                         _______ _______ _______ _____ _____    ______ ____
ROOT
ATOM      1  C   UNL     1      -0.869   3.851 -23.610  0.00  0.00    +0.130 A 
ATOM      2  C   UNL     1      -0.374   2.997 -22.762  0.00  0.00    +0.092 A 
ATOM      3  C   UNL     1      -1.155   2.392 -21.919  0.00  0.00    +0.134 A 
ATOM      4  C   UNL     1      -2.430   2.639 -21.920  0.00  0.00    +0.060 A 
ATOM      5  C   UNL     1      -3.211   2.033 -21.076  0.00  0.00    +0.022 A 
ATOM      6  C   UNL     1      -4.488   2.280 -21.077  0.00  0.00    +0.093 A 
ATOM      7  C   UNL     1      -4.983   3.133 -21.923  0.00  0.00    +0.337 A 
ATOM      8  O   UNL     1      -4.202   3.739 -22.768  0.00  0.00    -0.422 OA
ATOM      9  O   UNL     1      -6.259   3.380 -21.925  0.00  0.00    -0.245 OA
ATOM     10  C   UNL     1      -2.926   3.493 -22.767  0.00  0.00    +0.149 A 
ATOM     11  C   UNL     1      -2.146   4.099 -23.611  0.00  0.00    +0.040 A 
ENDROOT
BRANCH   3  12
ATOM     12  O   UNL     1      -0.659   1.539 -21.072  0.00  0.00    -0.494 OA
ATOM     13  C   UNL     1       0.630   1.419 -20.948  0.00  0.00    +0.277 C 
ENDBRANCH   3  12
BRANCH   1  15
ATOM     14  C   UNL     1       0.782   3.777 -25.139  0.00  0.00    +0.277 C 
ATOM     15  O   UNL     1      -0.089   4.457 -24.454  0.00  0.00    -0.495 OA
ENDBRANCH   1  15
BRANCH  11  16
ATOM     16  C   UNL     1      -2.642   4.952 -24.458  0.00  0.00    +0.076 C 
BRANCH  16  17
ATOM     17  C   UNL     1      -3.712   4.652 -25.131  0.00  0.00    +0.150 C 
BRANCH  17  18
ATOM     18  C   UNL     1      -3.673   3.711 -26.027  0.00  0.00    +0.087 C 
ATOM     19  C   UNL     1      -2.615   3.562 -26.768  0.00  0.00    +0.043 C 
ATOM     20  C   UNL     1      -4.239   2.711 -26.636  0.00  0.00    +0.043 C 
BRANCH  18  21
ATOM     21  O   UNL     1      -4.872   3.340 -25.690  0.00  0.00    -0.387 OA
ATOM     22  H   UNL     1      -5.191   3.895 -24.962  0.00  0.00    +0.210 HD
ENDBRANCH  18  21
ENDBRANCH  17  18
BRANCH  17  23
ATOM     23  O   UNL     1      -4.821   5.291 -24.907  0.00  0.00    -0.389 OA
ATOM     24  H   UNL     1      -5.412   5.191 -25.671  0.00  0.00    +0.210 HD
ENDBRANCH  17  23
ENDBRANCH  16  17
ENDBRANCH  11  16
TORSDOF 7
ENDMDL
MODEL 4
REMARK VINA RESULT:    -7.565      1.532      4.894
REMARK INTER + INTRA:         -10.485
REMARK INTER:                 -10.525
REMARK INTRA:                   0.039
REMARK UNBOUND:                -0.046
REMARK  Name = ZINC000000338232
REMARK  11 active torsions:
REMARK  status: ('A' for Active; 'I' for Inactive)
REMARK    1  A    between atoms: C_1  and  O_2
REMARK    2  A    between atoms: O_2  and  C_3
REMARK    3  A    between atoms: C_5  and  O_6
REMARK    4  A    between atoms: O_6  and  C_7
REMARK    5  A    between atoms: C_15  and  C_16
REMARK    6  A    between atoms: C_16  and  C_17
REMARK    7  A    between atoms: C_17  and  O_18
REMARK    8  A    between atoms: C_17  and  C_19
REMARK    9  A    between atoms: C_19  and  C_20
REMARK   10  A    between atoms: C_19  and  C_21
REMARK   11  A    between atoms: C_19  and  O_22
REMARK                            x       y       z     vdW  Elec       q    Type
REMARK                         _______ _______ _______ _____ _____    ______ ____
ROOT
ATOM      1  C   UNL     1      -1.429   2.501 -21.707  0.00  0.00    +0.130 A 
ATOM      2  C   UNL     1      -0.453   1.788 -21.228  0.00  0.00    +0.092 A 
ATOM      3  C   UNL     1       0.682   1.733 -21.858  0.00  0.00    +0.134 A 
ATOM      4  C   UNL     1       0.843   2.390 -22.967  0.00  0.00    +0.060 A 
ATOM      5  C   UNL     1       1.979   2.335 -23.596  0.00  0.00    +0.022 A 
ATOM      6  C   UNL     1       2.140   2.993 -24.706  0.00  0.00    +0.093 A 
ATOM      7  C   UNL     1       1.165   3.707 -25.186  0.00  0.00    +0.337 A 
ATOM      8  O   UNL     1       0.029   3.762 -24.556  0.00  0.00    -0.422 OA
ATOM      9  O   UNL     1       1.326   4.365 -26.295  0.00  0.00    -0.245 OA
ATOM     10  C   UNL     1      -0.132   3.104 -23.447  0.00  0.00    +0.149 A 
ATOM     11  C   UNL     1      -1.268   3.160 -22.817  0.00  0.00    +0.040 A 
ENDROOT
BRANCH   3  12
ATOM     12  O   UNL     1       1.657   1.020 -21.378  0.00  0.00    -0.494 OA
ATOM     13  C   UNL     1       2.307   1.428 -20.329  0.00  0.00    +0.277 C 
ENDBRANCH   3  12
BRANCH   1  15
ATOM     14  C   UNL     1      -2.762   3.467 -20.171  0.00  0.00    +0.277 C 
ATOM     15  O   UNL     1      -2.565   2.557 -21.078  0.00  0.00    -0.495 OA
ENDBRANCH   1  15
BRANCH  11  16
ATOM     16  C   UNL     1      -2.243   3.873 -23.297  0.00  0.00    +0.076 C 
BRANCH  16  17
ATOM     17  C   UNL     1      -3.098   3.337 -24.116  0.00  0.00    +0.150 C 
BRANCH  17  18
ATOM     18  C   UNL     1      -4.326   3.762 -24.143  0.00  0.00    +0.087 C 
ATOM     19  C   UNL     1      -4.727   4.531 -25.110  0.00  0.00    +0.043 C 
ATOM     20  C   UNL     1      -5.514   3.807 -23.614  0.00  0.00    +0.043 C 
BRANCH  18  21
ATOM     21  O   UNL     1      -4.573   3.118 -23.040  0.00  0.00    -0.387 OA
ATOM     22  H   UNL     1      -4.139   2.251 -23.068  0.00  0.00    +0.210 HD
ENDBRANCH  18  21
ENDBRANCH  17  18
BRANCH  17  23
ATOM     23  O   UNL     1      -2.725   2.377 -24.909  0.00  0.00    -0.389 OA
ATOM     24  H   UNL     1      -3.331   2.327 -25.664  0.00  0.00    +0.210 HD
ENDBRANCH  17  23
ENDBRANCH  16  17
ENDBRANCH  11  16
TORSDOF 7
ENDMDL
MODEL 5
REMARK VINA RESULT:    -7.449      1.101      3.805
REMARK INTER + INTRA:         -10.325
REMARK INTER:                 -10.011
REMARK INTRA:                  -0.314
REMARK UNBOUND:                -0.046
REMARK  Name = ZINC000000338232
REMARK  11 active torsions:
REMARK  status: ('A' for Active; 'I' for Inactive)
REMARK    1  A    between atoms: C_1  and  O_2
REMARK    2  A    between atoms: O_2  and  C_3
REMARK    3  A    between atoms: C_5  and  O_6
REMARK    4  A    between atoms: O_6  and  C_7
REMARK    5  A    between atoms: C_15  and  C_16
REMARK    6  A    between atoms: C_16  and  C_17
REMARK    7  A    between atoms: C_17  and  O_18
REMARK    8  A    between atoms: C_17  and  C_19
REMARK    9  A    between atoms: C_19  and  C_20
REMARK   10  A    between atoms: C_19  and  C_21
REMARK   11  A    between atoms: C_19  and  O_22
REMARK                            x       y       z     vdW  Elec       q    Type
REMARK                         _______ _______ _______ _____ _____    ______ ____
ROOT
ATOM      1  C   UNL     1      -1.695   3.152 -24.792  0.00  0.00    +0.130 A 
ATOM      2  C   UNL     1      -2.732   3.174 -24.008  0.00  0.00    +0.092 A 
ATOM      3  C   UNL     1      -2.623   2.774 -22.776  0.00  0.00    +0.134 A 
ATOM      4  C   UNL     1      -1.479   2.354 -22.327  0.00  0.00    +0.060 A 
ATOM      5  C   UNL     1      -1.371   1.955 -21.095  0.00  0.00    +0.022 A 
ATOM      6  C   UNL     1      -0.226   1.533 -20.646  0.00  0.00    +0.093 A 
ATOM      7  C   UNL     1       0.812   1.512 -21.429  0.00  0.00    +0.337 A 
ATOM      8  O   UNL     1       0.703   1.911 -22.662  0.00  0.00    -0.422 OA
ATOM      9  O   UNL     1       1.957   1.091 -20.981  0.00  0.00    -0.245 OA
ATOM     10  C   UNL     1      -0.441   2.332 -23.111  0.00  0.00    +0.149 A 
ATOM     11  C   UNL     1      -0.549   2.731 -24.343  0.00  0.00    +0.040 A 
ENDROOT
BRANCH   3  12
ATOM     12  O   UNL     1      -3.661   2.796 -21.992  0.00  0.00    -0.494 OA
ATOM     13  C   UNL     1      -4.755   3.383 -22.377  0.00  0.00    +0.277 C 
ENDBRANCH   3  12
BRANCH   1  15
ATOM     14  C   UNL     1      -2.967   3.566 -26.604  0.00  0.00    +0.277 C 
ATOM     15  O   UNL     1      -1.803   3.552 -26.025  0.00  0.00    -0.495 OA
ENDBRANCH   1  15
BRANCH  11  16
ATOM     16  C   UNL     1       0.488   2.710 -25.127  0.00  0.00    +0.076 C 
BRANCH  16  17
ATOM     17  C   UNL     1       1.210   3.779 -25.277  0.00  0.00    +0.150 C 
BRANCH  17  18
ATOM     18  C   UNL     1       2.024   4.152 -24.334  0.00  0.00    +0.087 C 
ATOM     19  C   UNL     1       1.786   5.238 -23.662  0.00  0.00    +0.043 C 
ATOM     20  C   UNL     1       3.101   3.954 -23.633  0.00  0.00    +0.043 C 
BRANCH  18  21
ATOM     21  O   UNL     1       2.768   3.111 -24.566  0.00  0.00    -0.387 OA
ATOM     22  H   UNL     1       2.244   2.305 -24.444  0.00  0.00    +0.210 HD
ENDBRANCH  18  21
ENDBRANCH  17  18
BRANCH  17  23
ATOM     23  O   UNL     1       1.119   4.477 -26.370  0.00  0.00    -0.389 OA
ATOM     24  H   UNL     1       0.890   5.394 -26.150  0.00  0.00    +0.210 HD
ENDBRANCH  17  23
ENDBRANCH  16  17
ENDBRANCH  11  16
TORSDOF 7
ENDMDL
MODEL 6
REMARK VINA RESULT:    -6.978      1.651      6.074
REMARK INTER + INTRA:          -9.675
REMARK INTER:                  -9.731
REMARK INTRA:                   0.055
REMARK UNBOUND:                -0.046
REMARK  Name = ZINC000000338232
REMARK  11 active torsions:
REMARK  status: ('A' for Active; 'I' for Inactive)
REMARK    1  A    between atoms: C_1  and  O_2
REMARK    2  A    between atoms: O_2  and  C_3
REMARK    3  A    between atoms: C_5  and  O_6
REMARK    4  A    between atoms: O_6  and  C_7
REMARK    5  A    between atoms: C_15  and  C_16
REMARK    6  A    between atoms: C_16  and  C_17
REMARK    7  A    between atoms: C_17  and  O_18
REMARK    8  A    between atoms: C_17  and  C_19
REMARK    9  A    between atoms: C_19  and  C_20
REMARK   10  A    between atoms: C_19  and  C_21
REMARK   11  A    between atoms: C_19  and  O_22
REMARK                            x       y       z     vdW  Elec       q    Type
REMARK                         _______ _______ _______ _____ _____    ______ ____
ROOT
ATOM      1  C   UNL     1      -1.383   2.730 -23.871  0.00  0.00    +0.130 A 
ATOM      2  C   UNL     1      -0.390   2.917 -24.691  0.00  0.00    +0.092 A 
ATOM      3  C   UNL     1       0.830   2.723 -24.289  0.00  0.00    +0.134 A 
ATOM      4  C   UNL     1       1.060   2.344 -23.068  0.00  0.00    +0.060 A 
ATOM      5  C   UNL     1       2.281   2.151 -22.666  0.00  0.00    +0.022 A 
ATOM      6  C   UNL     1       2.511   1.771 -21.444  0.00  0.00    +0.093 A 
ATOM      7  C   UNL     1       1.520   1.584 -20.624  0.00  0.00    +0.337 A 
ATOM      8  O   UNL     1       0.299   1.777 -21.026  0.00  0.00    -0.422 OA
ATOM      9  O   UNL     1       1.750   1.204 -19.402  0.00  0.00    -0.245 OA
ATOM     10  C   UNL     1       0.068   2.157 -22.247  0.00  0.00    +0.149 A 
ATOM     11  C   UNL     1      -1.153   2.350 -22.649  0.00  0.00    +0.040 A 
ENDROOT
BRANCH   3  12
ATOM     12  O   UNL     1       1.821   2.910 -25.109  0.00  0.00    -0.494 OA
ATOM     13  C   UNL     1       2.180   1.962 -25.922  0.00  0.00    +0.277 C 
ENDBRANCH   3  12
BRANCH   1  15
ATOM     14  C   UNL     1      -2.847   3.144 -25.530  0.00  0.00    +0.277 C 
ATOM     15  O   UNL     1      -2.604   2.923 -24.272  0.00  0.00    -0.495 OA
ENDBRANCH   1  15
BRANCH  11  16
ATOM     16  C   UNL     1      -2.144   2.163 -21.828  0.00  0.00    +0.076 C 
BRANCH  16  17
ATOM     17  C   UNL     1      -2.952   3.143 -21.552  0.00  0.00    +0.150 C 
BRANCH  17  18
ATOM     18  C   UNL     1      -4.234   2.934 -21.506  0.00  0.00    +0.087 C 
ATOM     19  C   UNL     1      -4.718   2.035 -20.703  0.00  0.00    +0.043 C 
ATOM     20  C   UNL     1      -5.436   3.213 -21.917  0.00  0.00    +0.043 C 
BRANCH  18  21
ATOM     21  O   UNL     1      -4.416   3.853 -22.408  0.00  0.00    -0.387 OA
ATOM     22  H   UNL     1      -3.564   4.254 -22.638  0.00  0.00    +0.210 HD
ENDBRANCH  18  21
ENDBRANCH  17  18
BRANCH  17  23
ATOM     23  O   UNL     1      -2.478   4.331 -21.323  0.00  0.00    -0.389 OA
ATOM     24  H   UNL     1      -2.249   4.412 -20.383  0.00  0.00    +0.210 HD
ENDBRANCH  17  23
ENDBRANCH  16  17
ENDBRANCH  11  16
TORSDOF 7
ENDMDL
MODEL 7
REMARK VINA RESULT:    -6.839      2.488      6.601
REMARK INTER + INTRA:          -9.484
REMARK INTER:                  -9.038
REMARK INTRA:                  -0.446
REMARK UNBOUND:                -0.046
REMARK  Name = ZINC000000338232
REMARK  11 active torsions:
REMARK  status: ('A' for Active; 'I' for Inactive)
REMARK    1  A    between atoms: C_1  and  O_2
REMARK    2  A    between atoms: O_2  and  C_3
REMARK    3  A    between atoms: C_5  and  O_6
REMARK    4  A    between atoms: O_6  and  C_7
REMARK    5  A    between atoms: C_15  and  C_16
REMARK    6  A    between atoms: C_16  and  C_17
REMARK    7  A    between atoms: C_17  and  O_18
REMARK    8  A    between atoms: C_17  and  C_19
REMARK    9  A    between atoms: C_19  and  C_20
REMARK   10  A    between atoms: C_19  and  C_21
REMARK   11  A    between atoms: C_19  and  O_22
REMARK                            x       y       z     vdW  Elec       q    Type
REMARK                         _______ _______ _______ _____ _____    ______ ____
ROOT
ATOM      1  C   UNL     1       1.673   4.522 -23.547  0.00  0.00    +0.130 A 
ATOM      2  C   UNL     1       2.459   5.518 -23.258  0.00  0.00    +0.092 A 
ATOM      3  C   UNL     1       3.675   5.291 -22.860  0.00  0.00    +0.134 A 
ATOM      4  C   UNL     1       4.107   4.071 -22.751  0.00  0.00    +0.060 A 
ATOM      5  C   UNL     1       5.324   3.845 -22.354  0.00  0.00    +0.022 A 
ATOM      6  C   UNL     1       5.757   2.623 -22.245  0.00  0.00    +0.093 A 
ATOM      7  C   UNL     1       4.972   1.628 -22.533  0.00  0.00    +0.337 A 
ATOM      8  O   UNL     1       3.754   1.854 -22.931  0.00  0.00    -0.422 OA
ATOM      9  O   UNL     1       5.404   0.407 -22.425  0.00  0.00    -0.245 OA
ATOM     10  C   UNL     1       3.322   3.075 -23.040  0.00  0.00    +0.149 A 
ATOM     11  C   UNL     1       2.105   3.300 -23.438  0.00  0.00    +0.040 A 
ENDROOT
BRANCH   3  12
ATOM     12  O   UNL     1       4.460   6.286 -22.572  0.00  0.00    -0.494 OA
ATOM     13  C   UNL     1       3.961   7.399 -22.121  0.00  0.00    +0.277 C 
ENDBRANCH   3  12
BRANCH   1  15
ATOM     14  C   UNL     1      -0.341   5.472 -23.217  0.00  0.00    +0.277 C 
ATOM     15  O   UNL     1       0.456   4.748 -23.944  0.00  0.00    -0.495 OA
ENDBRANCH   1  15
BRANCH  11  16
ATOM     16  C   UNL     1       1.321   2.305 -23.726  0.00  0.00    +0.076 C 
BRANCH  16  17
ATOM     17  C   UNL     1       0.673   1.694 -22.780  0.00  0.00    +0.150 C 
BRANCH  17  18
ATOM     18  C   UNL     1      -0.572   1.989 -22.550  0.00  0.00    +0.087 C 
ATOM     19  C   UNL     1      -0.968   2.236 -21.337  0.00  0.00    +0.043 C 
ATOM     20  C   UNL     1      -1.782   2.188 -22.985  0.00  0.00    +0.043 C 
BRANCH  18  21
ATOM     21  O   UNL     1      -0.834   1.874 -23.818  0.00  0.00    -0.387 OA
ATOM     22  H   UNL     1      -0.069   1.490 -24.273  0.00  0.00    +0.210 HD
ENDBRANCH  18  21
ENDBRANCH  17  18
BRANCH  17  23
ATOM     23  O   UNL     1       1.269   0.788 -22.064  0.00  0.00    -0.389 OA
ATOM     24  H   UNL     1       1.000  -0.094 -22.369  0.00  0.00    +0.210 HD
ENDBRANCH  17  23
ENDBRANCH  16  17
ENDBRANCH  11  16
TORSDOF 7
ENDMDL
MODEL 8
REMARK VINA RESULT:    -6.417      1.928      5.857
REMARK INTER + INTRA:          -8.900
REMARK INTER:                  -9.277
REMARK INTRA:                   0.376
REMARK UNBOUND:                -0.046
REMARK  Name = ZINC000000338232
REMARK  11 active torsions:
REMARK  status: ('A' for Active; 'I' for Inactive)
REMARK    1  A    between atoms: C_1  and  O_2
REMARK    2  A    between atoms: O_2  and  C_3
REMARK    3  A    between atoms: C_5  and  O_6
REMARK    4  A    between atoms: O_6  and  C_7
REMARK    5  A    between atoms: C_15  and  C_16
REMARK    6  A    between atoms: C_16  and  C_17
REMARK    7  A    between atoms: C_17  and  O_18
REMARK    8  A    between atoms: C_17  and  C_19
REMARK    9  A    between atoms: C_19  and  C_20
REMARK   10  A    between atoms: C_19  and  C_21
REMARK   11  A    between atoms: C_19  and  O_22
REMARK                            x       y       z     vdW  Elec       q    Type
REMARK                         _______ _______ _______ _____ _____    ______ ____
ROOT
ATOM      1  C   UNL     1       0.798   4.853 -23.425  0.00  0.00    +0.130 A 
ATOM      2  C   UNL     1       1.955   5.417 -23.237  0.00  0.00    +0.092 A 
ATOM      3  C   UNL     1       3.010   4.684 -23.042  0.00  0.00    +0.134 A 
ATOM      4  C   UNL     1       2.911   3.389 -23.035  0.00  0.00    +0.060 A 
ATOM      5  C   UNL     1       3.967   2.657 -22.840  0.00  0.00    +0.022 A 
ATOM      6  C   UNL     1       3.868   1.360 -22.832  0.00  0.00    +0.093 A 
ATOM      7  C   UNL     1       2.712   0.796 -23.019  0.00  0.00    +0.337 A 
ATOM      8  O   UNL     1       1.655   1.529 -23.214  0.00  0.00    -0.422 OA
ATOM      9  O   UNL     1       2.612  -0.500 -23.012  0.00  0.00    -0.245 OA
ATOM     10  C   UNL     1       1.754   2.824 -23.222  0.00  0.00    +0.149 A 
ATOM     11  C   UNL     1       0.698   3.556 -23.417  0.00  0.00    +0.040 A 
ENDROOT
BRANCH   3  12
ATOM     12  O   UNL     1       4.167   5.248 -22.855  0.00  0.00    -0.494 OA
ATOM     13  C   UNL     1       4.232   6.453 -22.369  0.00  0.00    +0.277 C 
ENDBRANCH   3  12
BRANCH   1  15
ATOM     14  C   UNL     1      -1.051   5.860 -22.627  0.00  0.00    +0.277 C 
ATOM     15  O   UNL     1      -0.259   5.585 -23.620  0.00  0.00    -0.495 OA
ENDBRANCH   1  15
BRANCH  11  16
ATOM     16  C   UNL     1      -0.458   2.992 -23.605  0.00  0.00    +0.076 C 
BRANCH  16  17
ATOM     17  C   UNL     1      -1.036   3.067 -24.766  0.00  0.00    +0.150 C 
BRANCH  17  18
ATOM     18  C   UNL     1      -2.334   3.066 -24.846  0.00  0.00    +0.087 C 
ATOM     19  C   UNL     1      -3.052   3.013 -23.764  0.00  0.00    +0.043 C 
ATOM     20  C   UNL     1      -3.418   3.096 -25.564  0.00  0.00    +0.043 C 
BRANCH  18  21
ATOM     21  O   UNL     1      -2.254   3.127 -26.142  0.00  0.00    -0.387 OA
ATOM     22  H   UNL     1      -1.639   3.833 -26.396  0.00  0.00    +0.210 HD
ENDBRANCH  18  21
ENDBRANCH  17  18
BRANCH  17  23
ATOM     23  O   UNL     1      -0.318   3.143 -25.846  0.00  0.00    -0.389 OA
ATOM     24  H   UNL     1      -0.005   2.258 -26.089  0.00  0.00    +0.210 HD
ENDBRANCH  17  23
ENDBRANCH  16  17
ENDBRANCH  11  16
TORSDOF 7
ENDMDL
MODEL 9
REMARK VINA RESULT:    -6.117      2.923      7.148
REMARK INTER + INTRA:          -8.487
REMARK INTER:                  -8.441
REMARK INTRA:                  -0.046
REMARK UNBOUND:                -0.046
REMARK  Name = ZINC000000338232
REMARK  11 active torsions:
REMARK  status: ('A' for Active; 'I' for Inactive)
REMARK    1  A    between atoms: C_1  and  O_2
REMARK    2  A    between atoms: O_2  and  C_3
REMARK    3  A    between atoms: C_5  and  O_6
REMARK    4  A    between atoms: O_6  and  C_7
REMARK    5  A    between atoms: C_15  and  C_16
REMARK    6  A    between atoms: C_16  and  C_17
REMARK    7  A    between atoms: C_17  and  O_18
REMARK    8  A    between atoms: C_17  and  C_19
REMARK    9  A    between atoms: C_19  and  C_20
REMARK   10  A    between atoms: C_19  and  C_21
REMARK   11  A    between atoms: C_19  and  O_22
REMARK                            x       y       z     vdW  Elec       q    Type
REMARK                         _______ _______ _______ _____ _____    ______ ____
ROOT
ATOM      1  C   UNL     1       3.420   3.018 -23.633  0.00  0.00    +0.130 A 
ATOM      2  C   UNL     1       4.695   2.760 -23.642  0.00  0.00    +0.092 A 
ATOM      3  C   UNL     1       5.545   3.668 -23.267  0.00  0.00    +0.134 A 
ATOM      4  C   UNL     1       5.122   4.835 -22.883  0.00  0.00    +0.060 A 
ATOM      5  C   UNL     1       5.973   5.744 -22.508  0.00  0.00    +0.022 A 
ATOM      6  C   UNL     1       5.550   6.912 -22.124  0.00  0.00    +0.093 A 
ATOM      7  C   UNL     1       4.276   7.171 -22.114  0.00  0.00    +0.337 A 
ATOM      8  O   UNL     1       3.425   6.262 -22.490  0.00  0.00    -0.422 OA
ATOM      9  O   UNL     1       3.852   8.338 -21.730  0.00  0.00    -0.245 OA
ATOM     10  C   UNL     1       3.847   5.095 -22.874  0.00  0.00    +0.149 A 
ATOM     11  C   UNL     1       2.997   4.186 -23.248  0.00  0.00    +0.040 A 
ENDROOT
BRANCH   3  12
ATOM     12  O   UNL     1       6.818   3.409 -23.276  0.00  0.00    -0.494 OA
ATOM     13  C   UNL     1       7.473   3.403 -24.399  0.00  0.00    +0.277 C 
ENDBRANCH   3  12
BRANCH   1  15
ATOM     14  C   UNL     1       2.969   1.102 -24.725  0.00  0.00    +0.277 C 
ATOM     15  O   UNL     1       2.569   2.110 -24.008  0.00  0.00    -0.495 OA
ENDBRANCH   1  15
BRANCH  11  16
ATOM     16  C   UNL     1       1.723   4.445 -23.239  0.00  0.00    +0.076 C 
BRANCH  16  17
ATOM     17  C   UNL     1       1.031   4.342 -24.334  0.00  0.00    +0.150 C 
BRANCH  17  18
ATOM     18  C   UNL     1      -0.235   4.056 -24.278  0.00  0.00    +0.087 C 
ATOM     19  C   UNL     1      -1.033   4.778 -23.549  0.00  0.00    +0.043 C 
ATOM     20  C   UNL     1      -1.238   3.308 -24.634  0.00  0.00    +0.043 C 
BRANCH  18  21
ATOM     21  O   UNL     1      -0.046   3.056 -25.087  0.00  0.00    -0.387 OA
ATOM     22  H   UNL     1       0.279   2.292 -24.587  0.00  0.00    +0.210 HD
ENDBRANCH  18  21
ENDBRANCH  17  18
BRANCH  17  23
ATOM     23  O   UNL     1       1.606   4.524 -25.486  0.00  0.00    -0.389 OA
ATOM     24  H   UNL     1       1.159   3.988 -26.159  0.00  0.00    +0.210 HD
ENDBRANCH  17  23
ENDBRANCH  16  17
ENDBRANCH  11  16
TORSDOF 7
ENDMDL
