MODEL 1
REMARK VINA RESULT:    -9.964      0.000      0.000
REMARK INTER + INTRA:         -11.079
REMARK INTER:                 -10.553
REMARK INTRA:                  -0.526
REMARK UNBOUND:                -0.532
REMARK  Name = ZINC000000038933
REMARK  1 active torsions:
REMARK  status: ('A' for Active; 'I' for Inactive)
REMARK    1  A    between atoms: C_4  and  C_5
REMARK                            x       y       z     vdW  Elec       q    Type
REMARK                         _______ _______ _______ _____ _____    ______ ____
ROOT
ATOM      1  O   UNL     1      -0.438   3.920 -26.189  0.00  0.00    -0.287 OA
ATOM      2  C   UNL     1      -0.552   3.506 -24.961  0.00  0.00    +0.193 A 
ATOM      3  C   UNL     1       0.504   3.138 -24.299  0.00  0.00    +0.098 A 
ATOM      4  C   UNL     1       0.389   2.724 -23.071  0.00  0.00    +0.139 A 
ATOM      5  O   UNL     1      -0.782   2.678 -22.508  0.00  0.00    -0.454 OA
ATOM      6  C   UNL     1      -1.837   3.047 -23.171  0.00  0.00    +0.147 A 
ATOM      7  C   UNL     1      -3.008   3.001 -22.607  0.00  0.00    +0.025 A 
ATOM      8  C   UNL     1      -3.122   2.587 -21.380  0.00  0.00    +0.012 A 
ATOM      9  C   UNL     1      -4.293   2.542 -20.816  0.00  0.00    +0.001 A 
ATOM     10  C   UNL     1      -5.349   2.910 -21.479  0.00  0.00    +0.001 A 
ATOM     11  C   UNL     1      -5.234   3.324 -22.706  0.00  0.00    +0.008 A 
ATOM     12  C   UNL     1      -4.064   3.370 -23.270  0.00  0.00    -0.014 A 
ATOM     13  C   UNL     1      -3.949   3.784 -24.497  0.00  0.00    +0.009 A 
ATOM     14  C   UNL     1      -2.779   3.829 -25.060  0.00  0.00    +0.016 A 
ATOM     15  C   UNL     1      -1.723   3.461 -24.398  0.00  0.00    +0.065 A 
ENDROOT
BRANCH   4  16
ATOM     16  C   UNL     1       1.445   2.355 -22.409  0.00  0.00    +0.017 A 
ATOM     17  C   UNL     1       2.611   2.831 -22.728  0.00  0.00    +0.011 A 
ATOM     18  C   UNL     1       3.667   2.464 -22.066  0.00  0.00    +0.001 A 
ATOM     19  C   UNL     1       3.557   1.619 -21.084  0.00  0.00    +0.000 A 
ATOM     20  C   UNL     1       2.391   1.143 -20.764  0.00  0.00    +0.001 A 
ATOM     21  C   UNL     1       1.335   1.511 -21.426  0.00  0.00    +0.011 A 
ENDBRANCH   4  16
TORSDOF 1
ENDMDL
MODEL 2
REMARK VINA RESULT:    -9.926      1.342      3.168
REMARK INTER + INTRA:         -11.039
REMARK INTER:                 -10.516
REMARK INTRA:                  -0.523
REMARK UNBOUND:                -0.532
REMARK  Name = ZINC000000038933
REMARK  1 active torsions:
REMARK  status: ('A' for Active; 'I' for Inactive)
REMARK    1  A    between atoms: C_4  and  C_5
REMARK                            x       y       z     vdW  Elec       q    Type
REMARK                         _______ _______ _______ _____ _____    ______ ____
ROOT
ATOM      1  O   UNL     1      -3.310   3.127 -19.865  0.00  0.00    -0.287 OA
ATOM      2  C   UNL     1      -2.670   3.016 -20.992  0.00  0.00    +0.193 A 
ATOM      3  C   UNL     1      -1.403   2.725 -20.994  0.00  0.00    +0.098 A 
ATOM      4  C   UNL     1      -0.765   2.614 -22.122  0.00  0.00    +0.139 A 
ATOM      5  O   UNL     1      -1.394   2.793 -23.245  0.00  0.00    -0.454 OA
ATOM      6  C   UNL     1      -2.661   3.084 -23.242  0.00  0.00    +0.147 A 
ATOM      7  C   UNL     1      -3.289   3.263 -24.366  0.00  0.00    +0.025 A 
ATOM      8  C   UNL     1      -2.650   3.152 -25.493  0.00  0.00    +0.012 A 
ATOM      9  C   UNL     1      -3.279   3.331 -26.616  0.00  0.00    +0.001 A 
ATOM     10  C   UNL     1      -4.546   3.622 -26.614  0.00  0.00    +0.001 A 
ATOM     11  C   UNL     1      -5.184   3.733 -25.486  0.00  0.00    +0.008 A 
ATOM     12  C   UNL     1      -4.556   3.554 -24.363  0.00  0.00    -0.014 A 
ATOM     13  C   UNL     1      -5.195   3.666 -23.237  0.00  0.00    +0.009 A 
ATOM     14  C   UNL     1      -4.566   3.486 -22.113  0.00  0.00    +0.016 A 
ATOM     15  C   UNL     1      -3.299   3.195 -22.115  0.00  0.00    +0.065 A 
ENDROOT
BRANCH   4  16
ATOM     16  C   UNL     1       0.502   2.323 -22.124  0.00  0.00    +0.017 A 
ATOM     17  C   UNL     1       1.268   2.766 -23.076  0.00  0.00    +0.011 A 
ATOM     18  C   UNL     1       2.535   2.476 -23.079  0.00  0.00    +0.001 A 
ATOM     19  C   UNL     1       3.036   1.741 -22.130  0.00  0.00    +0.000 A 
ATOM     20  C   UNL     1       2.270   1.298 -21.178  0.00  0.00    +0.001 A 
ATOM     21  C   UNL     1       1.003   1.589 -21.176  0.00  0.00    +0.011 A 
ENDBRANCH   4  16
TORSDOF 1
ENDMDL
MODEL 3
REMARK VINA RESULT:    -9.716      0.574      5.647
REMARK INTER + INTRA:         -10.816
REMARK INTER:                 -10.283
REMARK INTRA:                  -0.533
REMARK UNBOUND:                -0.532
REMARK  Name = ZINC000000038933
REMARK  1 active torsions:
REMARK  status: ('A' for Active; 'I' for Inactive)
REMARK    1  A    between atoms: C_4  and  C_5
REMARK                            x       y       z     vdW  Elec       q    Type
REMARK                         _______ _______ _______ _____ _____    ______ ____
ROOT
ATOM      1  O   UNL     1      -0.774   3.752 -26.242  0.00  0.00    -0.287 OA
ATOM      2  C   UNL     1      -0.867   3.349 -25.008  0.00  0.00    +0.193 A 
ATOM      3  C   UNL     1      -2.024   3.323 -24.418  0.00  0.00    +0.098 A 
ATOM      4  C   UNL     1      -2.116   2.920 -23.185  0.00  0.00    +0.139 A 
ATOM      5  O   UNL     1      -1.050   2.543 -22.543  0.00  0.00    -0.454 OA
ATOM      6  C   UNL     1       0.107   2.568 -23.135  0.00  0.00    +0.147 A 
ATOM      7  C   UNL     1       1.173   2.190 -22.492  0.00  0.00    +0.025 A 
ATOM      8  C   UNL     1       1.080   1.788 -21.260  0.00  0.00    +0.012 A 
ATOM      9  C   UNL     1       2.146   1.410 -20.618  0.00  0.00    +0.001 A 
ATOM     10  C   UNL     1       3.304   1.435 -21.209  0.00  0.00    +0.001 A 
ATOM     11  C   UNL     1       3.396   1.838 -22.442  0.00  0.00    +0.008 A 
ATOM     12  C   UNL     1       2.331   2.216 -23.084  0.00  0.00    -0.014 A 
ATOM     13  C   UNL     1       2.423   2.619 -24.316  0.00  0.00    +0.009 A 
ATOM     14  C   UNL     1       1.357   2.996 -24.957  0.00  0.00    +0.016 A 
ATOM     15  C   UNL     1       0.199   2.971 -24.367  0.00  0.00    +0.065 A 
ENDROOT
BRANCH   4  16
ATOM     16  C   UNL     1      -3.274   2.895 -22.595  0.00  0.00    +0.017 A 
ATOM     17  C   UNL     1      -4.304   3.449 -23.161  0.00  0.00    +0.011 A 
ATOM     18  C   UNL     1      -5.462   3.424 -22.571  0.00  0.00    +0.001 A 
ATOM     19  C   UNL     1      -5.590   2.845 -21.415  0.00  0.00    +0.000 A 
ATOM     20  C   UNL     1      -4.560   2.291 -20.847  0.00  0.00    +0.001 A 
ATOM     21  C   UNL     1      -3.402   2.316 -21.438  0.00  0.00    +0.011 A 
ENDBRANCH   4  16
TORSDOF 1
ENDMDL
MODEL 4
REMARK VINA RESULT:    -9.547      1.088      5.816
REMARK INTER + INTRA:         -10.638
REMARK INTER:                 -10.114
REMARK INTRA:                  -0.524
REMARK UNBOUND:                -0.532
REMARK  Name = ZINC000000038933
REMARK  1 active torsions:
REMARK  status: ('A' for Active; 'I' for Inactive)
REMARK    1  A    between atoms: C_4  and  C_5
REMARK                            x       y       z     vdW  Elec       q    Type
REMARK                         _______ _______ _______ _____ _____    ______ ____
ROOT
ATOM      1  O   UNL     1       0.571   4.120 -25.944  0.00  0.00    -0.287 OA
ATOM      2  C   UNL     1       0.411   3.601 -24.762  0.00  0.00    +0.193 A 
ATOM      3  C   UNL     1      -0.743   3.679 -24.168  0.00  0.00    +0.098 A 
ATOM      4  C   UNL     1      -0.901   3.160 -22.987  0.00  0.00    +0.139 A 
ATOM      5  O   UNL     1       0.093   2.564 -22.399  0.00  0.00    -0.454 OA
ATOM      6  C   UNL     1       1.247   2.486 -22.994  0.00  0.00    +0.147 A 
ATOM      7  C   UNL     1       2.242   1.889 -22.406  0.00  0.00    +0.025 A 
ATOM      8  C   UNL     1       2.082   1.371 -21.224  0.00  0.00    +0.012 A 
ATOM      9  C   UNL     1       3.077   0.775 -20.637  0.00  0.00    +0.001 A 
ATOM     10  C   UNL     1       4.230   0.697 -21.231  0.00  0.00    +0.001 A 
ATOM     11  C   UNL     1       4.389   1.215 -22.412  0.00  0.00    +0.008 A 
ATOM     12  C   UNL     1       3.395   1.812 -23.000  0.00  0.00    -0.014 A 
ATOM     13  C   UNL     1       3.555   2.330 -24.181  0.00  0.00    +0.009 A 
ATOM     14  C   UNL     1       2.560   2.926 -24.768  0.00  0.00    +0.016 A 
ATOM     15  C   UNL     1       1.406   3.004 -24.175  0.00  0.00    +0.065 A 
ENDROOT
BRANCH   4  16
ATOM     16  C   UNL     1      -2.055   3.238 -22.393  0.00  0.00    +0.017 A 
ATOM     17  C   UNL     1      -3.147   3.275 -23.097  0.00  0.00    +0.011 A 
ATOM     18  C   UNL     1      -4.301   3.353 -22.504  0.00  0.00    +0.001 A 
ATOM     19  C   UNL     1      -4.364   3.395 -21.207  0.00  0.00    +0.000 A 
ATOM     20  C   UNL     1      -3.272   3.358 -20.501  0.00  0.00    +0.001 A 
ATOM     21  C   UNL     1      -2.118   3.280 -21.095  0.00  0.00    +0.011 A 
ENDBRANCH   4  16
TORSDOF 1
ENDMDL
MODEL 5
REMARK VINA RESULT:    -8.759      2.534      4.688
REMARK INTER + INTRA:          -9.804
REMARK INTER:                  -9.290
REMARK INTRA:                  -0.514
REMARK UNBOUND:                -0.532
REMARK  Name = ZINC000000038933
REMARK  1 active torsions:
REMARK  status: ('A' for Active; 'I' for Inactive)
REMARK    1  A    between atoms: C_4  and  C_5
REMARK                            x       y       z     vdW  Elec       q    Type
REMARK                         _______ _______ _______ _____ _____    ______ ____
ROOT
ATOM      1  O   UNL     1       3.061   0.046 -21.383  0.00  0.00    -0.287 OA
ATOM      2  C   UNL     1       2.977   1.239 -21.895  0.00  0.00    +0.193 A 
ATOM      3  C   UNL     1       4.059   1.899 -22.184  0.00  0.00    +0.098 A 
ATOM      4  C   UNL     1       3.975   3.091 -22.696  0.00  0.00    +0.139 A 
ATOM      5  O   UNL     1       2.809   3.623 -22.918  0.00  0.00    -0.454 OA
ATOM      6  C   UNL     1       1.728   2.961 -22.629  0.00  0.00    +0.147 A 
ATOM      7  C   UNL     1       0.562   3.493 -22.851  0.00  0.00    +0.025 A 
ATOM      8  C   UNL     1       0.479   4.685 -23.363  0.00  0.00    +0.012 A 
ATOM      9  C   UNL     1      -0.687   5.216 -23.585  0.00  0.00    +0.001 A 
ATOM     10  C   UNL     1      -1.769   4.556 -23.295  0.00  0.00    +0.001 A 
ATOM     11  C   UNL     1      -1.684   3.364 -22.784  0.00  0.00    +0.008 A 
ATOM     12  C   UNL     1      -0.519   2.832 -22.561  0.00  0.00    -0.014 A 
ATOM     13  C   UNL     1      -0.436   1.641 -22.050  0.00  0.00    +0.009 A 
ATOM     14  C   UNL     1       0.730   1.109 -21.828  0.00  0.00    +0.016 A 
ATOM     15  C   UNL     1       1.812   1.770 -22.117  0.00  0.00    +0.065 A 
ENDROOT
BRANCH   4  16
ATOM     16  C   UNL     1       5.056   3.752 -22.986  0.00  0.00    +0.017 A 
ATOM     17  C   UNL     1       5.181   4.990 -22.612  0.00  0.00    +0.011 A 
ATOM     18  C   UNL     1       6.262   5.651 -22.901  0.00  0.00    +0.001 A 
ATOM     19  C   UNL     1       7.219   5.073 -23.564  0.00  0.00    +0.000 A 
ATOM     20  C   UNL     1       7.096   3.834 -23.938  0.00  0.00    +0.001 A 
ATOM     21  C   UNL     1       6.014   3.174 -23.648  0.00  0.00    +0.011 A 
ENDBRANCH   4  16
TORSDOF 1
ENDMDL
MODEL 6
REMARK VINA RESULT:    -8.345      2.307      7.247
REMARK INTER + INTRA:          -9.366
REMARK INTER:                  -8.835
REMARK INTRA:                  -0.531
REMARK UNBOUND:                -0.532
REMARK  Name = ZINC000000038933
REMARK  1 active torsions:
REMARK  status: ('A' for Active; 'I' for Inactive)
REMARK    1  A    between atoms: C_4  and  C_5
REMARK                            x       y       z     vdW  Elec       q    Type
REMARK                         _______ _______ _______ _____ _____    ______ ____
ROOT
ATOM      1  O   UNL     1       2.365  -0.387 -22.321  0.00  0.00    -0.287 OA
ATOM      2  C   UNL     1       2.365   0.894 -22.546  0.00  0.00    +0.193 A 
ATOM      3  C   UNL     1       1.247   1.510 -22.794  0.00  0.00    +0.098 A 
ATOM      4  C   UNL     1       1.248   2.790 -23.019  0.00  0.00    +0.139 A 
ATOM      5  O   UNL     1       2.365   3.454 -22.995  0.00  0.00    -0.454 OA
ATOM      6  C   UNL     1       3.482   2.837 -22.747  0.00  0.00    +0.147 A 
ATOM      7  C   UNL     1       4.600   3.502 -22.723  0.00  0.00    +0.025 A 
ATOM      8  C   UNL     1       4.599   4.782 -22.948  0.00  0.00    +0.012 A 
ATOM      9  C   UNL     1       5.717   5.446 -22.924  0.00  0.00    +0.001 A 
ATOM     10  C   UNL     1       6.834   4.830 -22.675  0.00  0.00    +0.001 A 
ATOM     11  C   UNL     1       6.834   3.550 -22.451  0.00  0.00    +0.008 A 
ATOM     12  C   UNL     1       5.717   2.885 -22.474  0.00  0.00    -0.014 A 
ATOM     13  C   UNL     1       5.717   1.605 -22.250  0.00  0.00    +0.009 A 
ATOM     14  C   UNL     1       4.600   0.942 -22.274  0.00  0.00    +0.016 A 
ATOM     15  C   UNL     1       3.482   1.558 -22.522  0.00  0.00    +0.065 A 
ENDROOT
BRANCH   4  16
ATOM     16  C   UNL     1       0.130   3.406 -23.267  0.00  0.00    +0.017 A 
ATOM     17  C   UNL     1      -0.926   2.727 -23.602  0.00  0.00    +0.011 A 
ATOM     18  C   UNL     1      -2.044   3.342 -23.851  0.00  0.00    +0.001 A 
ATOM     19  C   UNL     1      -2.105   4.638 -23.764  0.00  0.00    +0.000 A 
ATOM     20  C   UNL     1      -1.049   5.318 -23.429  0.00  0.00    +0.001 A 
ATOM     21  C   UNL     1       0.068   4.702 -23.181  0.00  0.00    +0.011 A 
ENDBRANCH   4  16
TORSDOF 1
ENDMDL
MODEL 7
REMARK VINA RESULT:    -8.334      1.552      6.418
REMARK INTER + INTRA:          -9.354
REMARK INTER:                  -8.820
REMARK INTRA:                  -0.534
REMARK UNBOUND:                -0.532
REMARK  Name = ZINC000000038933
REMARK  1 active torsions:
REMARK  status: ('A' for Active; 'I' for Inactive)
REMARK    1  A    between atoms: C_4  and  C_5
REMARK                            x       y       z     vdW  Elec       q    Type
REMARK                         _______ _______ _______ _____ _____    ______ ____
ROOT
ATOM      1  O   UNL     1      -2.066   2.421 -20.340  0.00  0.00    -0.287 OA
ATOM      2  C   UNL     1      -1.582   2.472 -21.546  0.00  0.00    +0.193 A 
ATOM      3  C   UNL     1      -2.349   2.810 -22.540  0.00  0.00    +0.098 A 
ATOM      4  C   UNL     1      -1.865   2.861 -23.746  0.00  0.00    +0.139 A 
ATOM      5  O   UNL     1      -0.614   2.574 -23.957  0.00  0.00    -0.454 OA
ATOM      6  C   UNL     1       0.152   2.237 -22.962  0.00  0.00    +0.147 A 
ATOM      7  C   UNL     1       1.403   1.950 -23.174  0.00  0.00    +0.025 A 
ATOM      8  C   UNL     1       1.886   2.001 -24.380  0.00  0.00    +0.012 A 
ATOM      9  C   UNL     1       3.136   1.715 -24.591  0.00  0.00    +0.001 A 
ATOM     10  C   UNL     1       3.903   1.377 -23.597  0.00  0.00    +0.001 A 
ATOM     11  C   UNL     1       3.419   1.326 -22.391  0.00  0.00    +0.008 A 
ATOM     12  C   UNL     1       2.169   1.612 -22.179  0.00  0.00    -0.014 A 
ATOM     13  C   UNL     1       1.685   1.561 -20.974  0.00  0.00    +0.009 A 
ATOM     14  C   UNL     1       0.435   1.848 -20.763  0.00  0.00    +0.016 A 
ATOM     15  C   UNL     1      -0.332   2.186 -21.757  0.00  0.00    +0.065 A 
ENDROOT
BRANCH   4  16
ATOM     16  C   UNL     1      -2.631   3.199 -24.740  0.00  0.00    +0.017 A 
ATOM     17  C   UNL     1      -3.889   3.452 -24.533  0.00  0.00    +0.011 A 
ATOM     18  C   UNL     1      -4.656   3.790 -25.526  0.00  0.00    +0.001 A 
ATOM     19  C   UNL     1      -4.166   3.874 -26.727  0.00  0.00    +0.000 A 
ATOM     20  C   UNL     1      -2.908   3.620 -26.935  0.00  0.00    +0.001 A 
ATOM     21  C   UNL     1      -2.141   3.282 -25.941  0.00  0.00    +0.011 A 
ENDBRANCH   4  16
TORSDOF 1
ENDMDL
