MODEL 1
REMARK VINA RESULT:    -9.032      0.000      0.000
REMARK INTER + INTRA:         -14.054
REMARK INTER:                 -13.089
REMARK INTRA:                  -0.965
REMARK UNBOUND:                -0.534
REMARK  Name = ZINC000004492889
REMARK  12 active torsions:
REMARK  status: ('A' for Active; 'I' for Inactive)
REMARK    1  A    between atoms: C_1  and  C_2
REMARK    2  A    between atoms: C_2  and  C_17
REMARK    3  A    between atoms: C_3  and  C_4
REMARK    4  A    between atoms: C_4  and  O_5
REMARK    5  A    between atoms: O_5  and  C_6
REMARK    6  A    between atoms: C_17  and  C_18
REMARK    7  A    between atoms: C_18  and  C_19
REMARK    8  A    between atoms: C_19  and  O_20
REMARK    9  A    between atoms: C_19  and  C_21
REMARK   10  A    between atoms: C_21  and  C_22
REMARK   11  A    between atoms: C_21  and  C_23
REMARK   12  A    between atoms: C_21  and  O_24
REMARK                            x       y       z     vdW  Elec       q    Type
REMARK                         _______ _______ _______ _____ _____    ______ ____
ROOT
ATOM      1  C   UNL     1       0.207   4.922 -23.557  0.00  0.00    +0.256 C 
ENDROOT
BRANCH   1   4
ATOM      2  C   UNL     1       1.165   3.492 -25.505  0.00  0.00    +0.039 C 
ATOM      3  C   UNL     1       1.480   3.210 -24.275  0.00  0.00    -0.073 C 
ATOM      4  C   UNL     1       1.001   3.925 -23.301  0.00  0.00    +0.012 C 
BRANCH   3   5
ATOM      5  C   UNL     1       2.274   2.212 -24.020  0.00  0.00    +0.033 C 
BRANCH   5   6
ATOM      6  C   UNL     1       2.504   1.862 -22.790  0.00  0.00    +0.038 C 
BRANCH   6   7
ATOM      7  C   UNL     1       3.067   0.719 -22.534  0.00  0.00    +0.146 C 
BRANCH   7   8
ATOM      8  C   UNL     1       4.119   0.669 -21.770  0.00  0.00    +0.086 C 
ATOM      9  C   UNL     1       5.229   1.223 -22.156  0.00  0.00    +0.043 C 
ATOM     10  C   UNL     1       4.691   0.290 -20.665  0.00  0.00    +0.043 C 
BRANCH   8  11
ATOM     11  O   UNL     1       3.443  -0.001 -20.883  0.00  0.00    -0.387 OA
ATOM     12  H   UNL     1       2.513   0.276 -20.909  0.00  0.00    +0.210 HD
ENDBRANCH   8  11
ENDBRANCH   7   8
BRANCH   7  13
ATOM     13  O   UNL     1       2.579  -0.374 -23.040  0.00  0.00    -0.389 OA
ATOM     14  H   UNL     1       2.996  -1.141 -22.617  0.00  0.00    +0.210 HD
ENDBRANCH   7  13
ENDBRANCH   6   7
ENDBRANCH   5   6
ENDBRANCH   3   5
ENDBRANCH   1   4
BRANCH   1  15
ATOM     15  O   UNL     1      -0.875   5.088 -22.855  0.00  0.00    -0.487 OA
BRANCH  15  16
ATOM     16  C   UNL     1      -1.982   4.513 -23.222  0.00  0.00    +0.135 A 
ATOM     17  C   UNL     1      -2.322   4.500 -24.476  0.00  0.00    +0.116 A 
ATOM     18  C   UNL     1      -3.430   3.925 -24.844  0.00  0.00    +0.253 A 
ATOM     19  N   UNL     1      -4.195   3.363 -23.955  0.00  0.00    -0.322 N 
ATOM     20  H   UNL     1      -5.034   2.928 -24.234  0.00  0.00    +0.169 HD
ATOM     21  C   UNL     1      -3.855   3.377 -22.701  0.00  0.00    +0.053 A 
ATOM     22  C   UNL     1      -4.621   2.815 -21.813  0.00  0.00    +0.026 A 
ATOM     23  C   UNL     1      -4.280   2.829 -20.559  0.00  0.00    +0.002 A 
ATOM     24  C   UNL     1      -3.174   3.404 -20.192  0.00  0.00    +0.001 A 
ATOM     25  C   UNL     1      -2.407   3.965 -21.080  0.00  0.00    +0.013 A 
ATOM     26  O   UNL     1      -3.770   3.911 -26.098  0.00  0.00    -0.268 OA
ATOM     27  C   UNL     1      -2.748   3.952 -22.335  0.00  0.00    +0.040 A 
ENDBRANCH  15  16
ENDBRANCH   1  15
TORSDOF 9
ENDMDL
MODEL 2
REMARK VINA RESULT:    -8.892      1.506      2.190
REMARK INTER + INTRA:         -13.845
REMARK INTER:                 -13.019
REMARK INTRA:                  -0.826
REMARK UNBOUND:                -0.534
REMARK  Name = ZINC000004492889
REMARK  12 active torsions:
REMARK  status: ('A' for Active; 'I' for Inactive)
REMARK    1  A    between atoms: C_1  and  C_2
REMARK    2  A    between atoms: C_2  and  C_17
REMARK    3  A    between atoms: C_3  and  C_4
REMARK    4  A    between atoms: C_4  and  O_5
REMARK    5  A    between atoms: O_5  and  C_6
REMARK    6  A    between atoms: C_17  and  C_18
REMARK    7  A    between atoms: C_18  and  C_19
REMARK    8  A    between atoms: C_19  and  O_20
REMARK    9  A    between atoms: C_19  and  C_21
REMARK   10  A    between atoms: C_21  and  C_22
REMARK   11  A    between atoms: C_21  and  C_23
REMARK   12  A    between atoms: C_21  and  O_24
REMARK                            x       y       z     vdW  Elec       q    Type
REMARK                         _______ _______ _______ _____ _____    ______ ____
ROOT
ATOM      1  C   UNL     1       0.696   2.885 -23.641  0.00  0.00    +0.256 C 
ENDROOT
BRANCH   1   4
ATOM      2  C   UNL     1       0.467   1.179 -21.692  0.00  0.00    +0.039 C 
ATOM      3  C   UNL     1       1.586   1.817 -21.870  0.00  0.00    -0.073 C 
ATOM      4  C   UNL     1       1.701   2.669 -22.844  0.00  0.00    +0.012 C 
BRANCH   3   5
ATOM      5  C   UNL     1       2.591   1.601 -21.073  0.00  0.00    +0.033 C 
BRANCH   5   6
ATOM      6  C   UNL     1       3.667   1.028 -21.523  0.00  0.00    +0.038 C 
BRANCH   6   7
ATOM      7  C   UNL     1       4.822   1.316 -21.003  0.00  0.00    +0.146 C 
BRANCH   7   8
ATOM      8  C   UNL     1       5.493   2.343 -21.437  0.00  0.00    +0.086 C 
ATOM      9  C   UNL     1       5.521   2.611 -22.709  0.00  0.00    +0.043 C 
ATOM     10  C   UNL     1       6.251   3.374 -21.202  0.00  0.00    +0.043 C 
BRANCH   8  11
ATOM     11  O   UNL     1       5.847   2.626 -20.218  0.00  0.00    -0.387 OA
ATOM     12  H   UNL     1       6.441   1.935 -19.886  0.00  0.00    +0.210 HD
ENDBRANCH   8  11
ENDBRANCH   7   8
BRANCH   7  13
ATOM     13  O   UNL     1       5.309   0.579 -20.050  0.00  0.00    -0.389 OA
ATOM     14  H   UNL     1       4.592   0.298 -19.460  0.00  0.00    +0.210 HD
ENDBRANCH   7  13
ENDBRANCH   6   7
ENDBRANCH   5   6
ENDBRANCH   3   5
ENDBRANCH   1   4
BRANCH   1  15
ATOM     15  O   UNL     1      -0.193   3.785 -23.338  0.00  0.00    -0.487 OA
BRANCH  15  16
ATOM     16  C   UNL     1      -1.411   3.667 -23.775  0.00  0.00    +0.135 A 
ATOM     17  C   UNL     1      -1.640   3.602 -25.052  0.00  0.00    +0.116 A 
ATOM     18  C   UNL     1      -2.859   3.485 -25.490  0.00  0.00    +0.253 A 
ATOM     19  N   UNL     1      -3.849   3.433 -24.648  0.00  0.00    -0.322 N 
ATOM     20  H   UNL     1      -4.772   3.344 -24.979  0.00  0.00    +0.169 HD
ATOM     21  C   UNL     1      -3.620   3.498 -23.370  0.00  0.00    +0.053 A 
ATOM     22  C   UNL     1      -4.609   3.445 -22.529  0.00  0.00    +0.026 A 
ATOM     23  C   UNL     1      -4.381   3.511 -21.251  0.00  0.00    +0.002 A 
ATOM     24  C   UNL     1      -3.162   3.628 -20.814  0.00  0.00    +0.001 A 
ATOM     25  C   UNL     1      -2.172   3.680 -21.655  0.00  0.00    +0.013 A 
ATOM     26  O   UNL     1      -3.088   3.420 -26.767  0.00  0.00    -0.268 OA
ATOM     27  C   UNL     1      -2.401   3.615 -22.934  0.00  0.00    +0.040 A 
ENDBRANCH  15  16
ENDBRANCH   1  15
TORSDOF 9
ENDMDL
MODEL 3
REMARK VINA RESULT:    -8.678      1.958      3.377
REMARK INTER + INTRA:         -13.524
REMARK INTER:                 -12.650
REMARK INTRA:                  -0.874
REMARK UNBOUND:                -0.534
REMARK  Name = ZINC000004492889
REMARK  12 active torsions:
REMARK  status: ('A' for Active; 'I' for Inactive)
REMARK    1  A    between atoms: C_1  and  C_2
REMARK    2  A    between atoms: C_2  and  C_17
REMARK    3  A    between atoms: C_3  and  C_4
REMARK    4  A    between atoms: C_4  and  O_5
REMARK    5  A    between atoms: O_5  and  C_6
REMARK    6  A    between atoms: C_17  and  C_18
REMARK    7  A    between atoms: C_18  and  C_19
REMARK    8  A    between atoms: C_19  and  O_20
REMARK    9  A    between atoms: C_19  and  C_21
REMARK   10  A    between atoms: C_21  and  C_22
REMARK   11  A    between atoms: C_21  and  C_23
REMARK   12  A    between atoms: C_21  and  O_24
REMARK                            x       y       z     vdW  Elec       q    Type
REMARK                         _______ _______ _______ _____ _____    ______ ____
ROOT
ATOM      1  C   UNL     1       0.420   2.787 -22.737  0.00  0.00    +0.256 C 
ENDROOT
BRANCH   1   4
ATOM      2  C   UNL     1       1.316   1.553 -20.631  0.00  0.00    +0.039 C 
ATOM      3  C   UNL     1       1.910   1.400 -21.777  0.00  0.00    -0.073 C 
ATOM      4  C   UNL     1       1.462   2.016 -22.830  0.00  0.00    +0.012 C 
BRANCH   3   5
ATOM      5  C   UNL     1       2.953   0.628 -21.870  0.00  0.00    +0.033 C 
BRANCH   5   6
ATOM      6  C   UNL     1       4.098   1.125 -22.232  0.00  0.00    +0.038 C 
BRANCH   6   7
ATOM      7  C   UNL     1       4.962   1.490 -21.331  0.00  0.00    +0.146 C 
BRANCH   7   8
ATOM      8  C   UNL     1       5.671   2.566 -21.509  0.00  0.00    +0.086 C 
ATOM      9  C   UNL     1       5.834   3.046 -22.706  0.00  0.00    +0.043 C 
ATOM     10  C   UNL     1       6.396   3.530 -21.023  0.00  0.00    +0.043 C 
BRANCH   8  11
ATOM     11  O   UNL     1       5.892   2.632 -20.230  0.00  0.00    -0.387 OA
ATOM     12  H   UNL     1       6.845   2.717 -20.071  0.00  0.00    +0.210 HD
ENDBRANCH   8  11
ENDBRANCH   7   8
BRANCH   7  13
ATOM     13  O   UNL     1       5.116   0.781 -20.253  0.00  0.00    -0.389 OA
ATOM     14  H   UNL     1       4.573   1.154 -19.540  0.00  0.00    +0.210 HD
ENDBRANCH   7  13
ENDBRANCH   6   7
ENDBRANCH   5   6
ENDBRANCH   3   5
ENDBRANCH   1   4
BRANCH   1  15
ATOM     15  O   UNL     1      -0.692   2.450 -23.321  0.00  0.00    -0.487 OA
BRANCH  15  16
ATOM     16  C   UNL     1      -1.829   2.848 -22.833  0.00  0.00    +0.135 A 
ATOM     17  C   UNL     1      -1.972   2.988 -21.549  0.00  0.00    +0.116 A 
ATOM     18  C   UNL     1      -3.109   3.386 -21.059  0.00  0.00    +0.253 A 
ATOM     19  N   UNL     1      -4.104   3.643 -21.856  0.00  0.00    -0.322 N 
ATOM     20  H   UNL     1      -4.965   3.945 -21.486  0.00  0.00    +0.169 HD
ATOM     21  C   UNL     1      -3.962   3.503 -23.140  0.00  0.00    +0.053 A 
ATOM     22  C   UNL     1      -4.956   3.761 -23.937  0.00  0.00    +0.026 A 
ATOM     23  C   UNL     1      -4.814   3.621 -25.221  0.00  0.00    +0.002 A 
ATOM     24  C   UNL     1      -3.677   3.223 -25.709  0.00  0.00    +0.001 A 
ATOM     25  C   UNL     1      -2.682   2.966 -24.914  0.00  0.00    +0.013 A 
ATOM     26  O   UNL     1      -3.251   3.526 -19.775  0.00  0.00    -0.268 OA
ATOM     27  C   UNL     1      -2.825   3.106 -23.629  0.00  0.00    +0.040 A 
ENDBRANCH  15  16
ENDBRANCH   1  15
TORSDOF 9
ENDMDL
MODEL 4
REMARK VINA RESULT:    -8.582      2.309      7.216
REMARK INTER + INTRA:         -13.380
REMARK INTER:                 -12.193
REMARK INTRA:                  -1.187
REMARK UNBOUND:                -0.534
REMARK  Name = ZINC000004492889
REMARK  12 active torsions:
REMARK  status: ('A' for Active; 'I' for Inactive)
REMARK    1  A    between atoms: C_1  and  C_2
REMARK    2  A    between atoms: C_2  and  C_17
REMARK    3  A    between atoms: C_3  and  C_4
REMARK    4  A    between atoms: C_4  and  O_5
REMARK    5  A    between atoms: O_5  and  C_6
REMARK    6  A    between atoms: C_17  and  C_18
REMARK    7  A    between atoms: C_18  and  C_19
REMARK    8  A    between atoms: C_19  and  O_20
REMARK    9  A    between atoms: C_19  and  C_21
REMARK   10  A    between atoms: C_21  and  C_22
REMARK   11  A    between atoms: C_21  and  C_23
REMARK   12  A    between atoms: C_21  and  O_24
REMARK                            x       y       z     vdW  Elec       q    Type
REMARK                         _______ _______ _______ _____ _____    ______ ____
ROOT
ATOM      1  C   UNL     1      -1.614   1.898 -21.583  0.00  0.00    +0.256 C 
ENDROOT
BRANCH   1   4
ATOM      2  C   UNL     1      -2.465   4.308 -21.105  0.00  0.00    +0.039 C 
ATOM      3  C   UNL     1      -3.208   3.476 -21.774  0.00  0.00    -0.073 C 
ATOM      4  C   UNL     1      -2.782   2.271 -22.012  0.00  0.00    +0.012 C 
BRANCH   3   5
ATOM      5  C   UNL     1      -4.377   3.849 -22.203  0.00  0.00    +0.033 C 
BRANCH   5   6
ATOM      6  C   UNL     1      -4.826   3.402 -23.338  0.00  0.00    +0.038 C 
BRANCH   6   7
ATOM      7  C   UNL     1      -4.672   4.105 -24.420  0.00  0.00    +0.146 C 
BRANCH   7   8
ATOM      8  C   UNL     1      -4.022   3.609 -25.431  0.00  0.00    +0.086 C 
ATOM      9  C   UNL     1      -2.724   3.670 -25.463  0.00  0.00    +0.043 C 
ATOM     10  C   UNL     1      -4.022   2.999 -26.580  0.00  0.00    +0.043 C 
BRANCH   8  11
ATOM     11  O   UNL     1      -5.146   3.251 -25.978  0.00  0.00    -0.387 OA
ATOM     12  H   UNL     1      -5.624   2.658 -25.376  0.00  0.00    +0.210 HD
ENDBRANCH   8  11
ENDBRANCH   7   8
BRANCH   7  13
ATOM     13  O   UNL     1      -5.167   5.305 -24.492  0.00  0.00    -0.389 OA
ATOM     14  H   UNL     1      -6.003   5.341 -24.001  0.00  0.00    +0.210 HD
ENDBRANCH   7  13
ENDBRANCH   6   7
ENDBRANCH   5   6
ENDBRANCH   3   5
ENDBRANCH   1   4
BRANCH   1  15
ATOM     15  O   UNL     1      -0.709   1.494 -22.426  0.00  0.00    -0.487 OA
BRANCH  15  16
ATOM     16  C   UNL     1       0.539   1.805 -22.239  0.00  0.00    +0.135 A 
ATOM     17  C   UNL     1       1.287   1.061 -21.479  0.00  0.00    +0.116 A 
ATOM     18  C   UNL     1       2.536   1.372 -21.292  0.00  0.00    +0.253 A 
ATOM     19  N   UNL     1       3.035   2.427 -21.864  0.00  0.00    -0.322 N 
ATOM     20  H   UNL     1       3.981   2.662 -21.722  0.00  0.00    +0.169 HD
ATOM     21  C   UNL     1       2.288   3.170 -22.624  0.00  0.00    +0.053 A 
ATOM     22  C   UNL     1       2.787   4.225 -23.196  0.00  0.00    +0.026 A 
ATOM     23  C   UNL     1       2.040   4.969 -23.956  0.00  0.00    +0.002 A 
ATOM     24  C   UNL     1       0.791   4.658 -24.143  0.00  0.00    +0.001 A 
ATOM     25  C   UNL     1       0.291   3.604 -23.571  0.00  0.00    +0.013 A 
ATOM     26  O   UNL     1       3.283   0.628 -20.532  0.00  0.00    -0.268 OA
ATOM     27  C   UNL     1       1.039   2.860 -22.811  0.00  0.00    +0.040 A 
ENDBRANCH  15  16
ENDBRANCH   1  15
TORSDOF 9
ENDMDL
MODEL 5
REMARK VINA RESULT:    -8.531      1.463      2.038
REMARK INTER + INTRA:         -13.304
REMARK INTER:                 -12.111
REMARK INTRA:                  -1.193
REMARK UNBOUND:                -0.534
REMARK  Name = ZINC000004492889
REMARK  12 active torsions:
REMARK  status: ('A' for Active; 'I' for Inactive)
REMARK    1  A    between atoms: C_1  and  C_2
REMARK    2  A    between atoms: C_2  and  C_17
REMARK    3  A    between atoms: C_3  and  C_4
REMARK    4  A    between atoms: C_4  and  O_5
REMARK    5  A    between atoms: O_5  and  C_6
REMARK    6  A    between atoms: C_17  and  C_18
REMARK    7  A    between atoms: C_18  and  C_19
REMARK    8  A    between atoms: C_19  and  O_20
REMARK    9  A    between atoms: C_19  and  C_21
REMARK   10  A    between atoms: C_21  and  C_22
REMARK   11  A    between atoms: C_21  and  C_23
REMARK   12  A    between atoms: C_21  and  O_24
REMARK                            x       y       z     vdW  Elec       q    Type
REMARK                         _______ _______ _______ _____ _____    ______ ____
ROOT
ATOM      1  C   UNL     1      -0.317   3.588 -25.110  0.00  0.00    +0.256 C 
ENDROOT
BRANCH   1   4
ATOM      2  C   UNL     1       0.527   5.247 -23.295  0.00  0.00    +0.039 C 
ATOM      3  C   UNL     1       1.364   4.446 -23.883  0.00  0.00    -0.073 C 
ATOM      4  C   UNL     1       0.943   3.616 -24.791  0.00  0.00    +0.012 C 
BRANCH   3   5
ATOM      5  C   UNL     1       2.625   4.474 -23.563  0.00  0.00    +0.033 C 
BRANCH   5   6
ATOM      6  C   UNL     1       3.344   3.396 -23.658  0.00  0.00    +0.038 C 
BRANCH   6   7
ATOM      7  C   UNL     1       3.672   2.738 -22.586  0.00  0.00    +0.146 C 
BRANCH   7   8
ATOM      8  C   UNL     1       3.064   1.626 -22.294  0.00  0.00    +0.086 C 
ATOM      9  C   UNL     1       2.353   1.539 -21.209  0.00  0.00    +0.043 C 
ATOM     10  C   UNL     1       2.773   0.391 -22.584  0.00  0.00    +0.043 C 
BRANCH   8  11
ATOM     11  O   UNL     1       3.535   1.084 -23.378  0.00  0.00    -0.387 OA
ATOM     12  H   UNL     1       3.748   1.779 -24.020  0.00  0.00    +0.210 HD
ENDBRANCH   8  11
ENDBRANCH   7   8
BRANCH   7  13
ATOM     13  O   UNL     1       4.608   3.191 -21.805  0.00  0.00    -0.389 OA
ATOM     14  H   UNL     1       4.496   2.819 -20.916  0.00  0.00    +0.210 HD
ENDBRANCH   7  13
ENDBRANCH   6   7
ENDBRANCH   5   6
ENDBRANCH   3   5
ENDBRANCH   1   4
BRANCH   1  15
ATOM     15  O   UNL     1      -1.116   2.739 -24.533  0.00  0.00    -0.487 OA
BRANCH  15  16
ATOM     16  C   UNL     1      -2.329   3.091 -24.230  0.00  0.00    +0.135 A 
ATOM     17  C   UNL     1      -3.157   3.444 -25.168  0.00  0.00    +0.116 A 
ATOM     18  C   UNL     1      -4.372   3.796 -24.865  0.00  0.00    +0.253 A 
ATOM     19  N   UNL     1      -4.757   3.795 -23.623  0.00  0.00    -0.322 N 
ATOM     20  H   UNL     1      -5.677   4.062 -23.394  0.00  0.00    +0.169 HD
ATOM     21  C   UNL     1      -3.930   3.442 -22.685  0.00  0.00    +0.053 A 
ATOM     22  C   UNL     1      -4.316   3.441 -21.444  0.00  0.00    +0.026 A 
ATOM     23  C   UNL     1      -3.488   3.087 -20.506  0.00  0.00    +0.002 A 
ATOM     24  C   UNL     1      -2.274   2.735 -20.809  0.00  0.00    +0.001 A 
ATOM     25  C   UNL     1      -1.888   2.737 -22.051  0.00  0.00    +0.013 A 
ATOM     26  O   UNL     1      -5.199   4.150 -25.802  0.00  0.00    -0.268 OA
ATOM     27  C   UNL     1      -2.716   3.090 -22.989  0.00  0.00    +0.040 A 
ENDBRANCH  15  16
ENDBRANCH   1  15
TORSDOF 9
ENDMDL
MODEL 6
REMARK VINA RESULT:    -8.508      1.711      2.844
REMARK INTER + INTRA:         -13.269
REMARK INTER:                 -12.618
REMARK INTRA:                  -0.652
REMARK UNBOUND:                -0.534
REMARK  Name = ZINC000004492889
REMARK  12 active torsions:
REMARK  status: ('A' for Active; 'I' for Inactive)
REMARK    1  A    between atoms: C_1  and  C_2
REMARK    2  A    between atoms: C_2  and  C_17
REMARK    3  A    between atoms: C_3  and  C_4
REMARK    4  A    between atoms: C_4  and  O_5
REMARK    5  A    between atoms: O_5  and  C_6
REMARK    6  A    between atoms: C_17  and  C_18
REMARK    7  A    between atoms: C_18  and  C_19
REMARK    8  A    between atoms: C_19  and  O_20
REMARK    9  A    between atoms: C_19  and  C_21
REMARK   10  A    between atoms: C_21  and  C_22
REMARK   11  A    between atoms: C_21  and  C_23
REMARK   12  A    between atoms: C_21  and  O_24
REMARK                            x       y       z     vdW  Elec       q    Type
REMARK                         _______ _______ _______ _____ _____    ______ ____
ROOT
ATOM      1  C   UNL     1       0.114   3.235 -23.473  0.00  0.00    +0.256 C 
ENDROOT
BRANCH   1   4
ATOM      2  C   UNL     1       2.240   4.708 -23.204  0.00  0.00    +0.039 C 
ATOM      3  C   UNL     1       2.339   3.506 -23.689  0.00  0.00    -0.073 C 
ATOM      4  C   UNL     1       1.276   2.770 -23.824  0.00  0.00    +0.012 C 
BRANCH   3   5
ATOM      5  C   UNL     1       3.501   3.040 -24.040  0.00  0.00    +0.033 C 
BRANCH   5   6
ATOM      6  C   UNL     1       4.291   2.523 -23.147  0.00  0.00    +0.038 C 
BRANCH   6   7
ATOM      7  C   UNL     1       4.235   1.250 -22.890  0.00  0.00    +0.146 C 
BRANCH   7   8
ATOM      8  C   UNL     1       4.278   0.831 -21.660  0.00  0.00    +0.086 C 
ATOM      9  C   UNL     1       3.194   0.805 -20.944  0.00  0.00    +0.043 C 
ATOM     10  C   UNL     1       4.956   0.363 -20.653  0.00  0.00    +0.043 C 
BRANCH   8  11
ATOM     11  O   UNL     1       5.556   0.620 -21.777  0.00  0.00    -0.387 OA
ATOM     12  H   UNL     1       5.851   0.899 -22.658  0.00  0.00    +0.210 HD
ENDBRANCH   8  11
ENDBRANCH   7   8
BRANCH   7  13
ATOM     13  O   UNL     1       4.137   0.394 -23.864  0.00  0.00    -0.389 OA
ATOM     14  H   UNL     1       3.257  -0.016 -23.846  0.00  0.00    +0.210 HD
ENDBRANCH   7  13
ENDBRANCH   6   7
ENDBRANCH   5   6
ENDBRANCH   3   5
ENDBRANCH   1   4
BRANCH   1  15
ATOM     15  O   UNL     1      -0.894   2.427 -23.328  0.00  0.00    -0.487 OA
BRANCH  15  16
ATOM     16  C   UNL     1      -1.993   2.850 -22.779  0.00  0.00    +0.135 A 
ATOM     17  C   UNL     1      -2.064   2.983 -21.488  0.00  0.00    +0.116 A 
ATOM     18  C   UNL     1      -3.164   3.406 -20.937  0.00  0.00    +0.253 A 
ATOM     19  N   UNL     1      -4.191   3.696 -21.679  0.00  0.00    -0.322 N 
ATOM     20  H   UNL     1      -5.024   4.017 -21.262  0.00  0.00    +0.169 HD
ATOM     21  C   UNL     1      -4.120   3.564 -22.970  0.00  0.00    +0.053 A 
ATOM     22  C   UNL     1      -5.148   3.854 -23.711  0.00  0.00    +0.026 A 
ATOM     23  C   UNL     1      -5.076   3.721 -25.002  0.00  0.00    +0.002 A 
ATOM     24  C   UNL     1      -3.977   3.298 -25.552  0.00  0.00    +0.001 A 
ATOM     25  C   UNL     1      -2.949   3.007 -24.811  0.00  0.00    +0.013 A 
ATOM     26  O   UNL     1      -3.235   3.539 -19.646  0.00  0.00    -0.268 OA
ATOM     27  C   UNL     1      -3.021   3.141 -23.520  0.00  0.00    +0.040 A 
ENDBRANCH  15  16
ENDBRANCH   1  15
TORSDOF 9
ENDMDL
MODEL 7
REMARK VINA RESULT:    -8.198      2.327      7.025
REMARK INTER + INTRA:         -12.806
REMARK INTER:                 -12.367
REMARK INTRA:                  -0.439
REMARK UNBOUND:                -0.534
REMARK  Name = ZINC000004492889
REMARK  12 active torsions:
REMARK  status: ('A' for Active; 'I' for Inactive)
REMARK    1  A    between atoms: C_1  and  C_2
REMARK    2  A    between atoms: C_2  and  C_17
REMARK    3  A    between atoms: C_3  and  C_4
REMARK    4  A    between atoms: C_4  and  O_5
REMARK    5  A    between atoms: O_5  and  C_6
REMARK    6  A    between atoms: C_17  and  C_18
REMARK    7  A    between atoms: C_18  and  C_19
REMARK    8  A    between atoms: C_19  and  O_20
REMARK    9  A    between atoms: C_19  and  C_21
REMARK   10  A    between atoms: C_21  and  C_22
REMARK   11  A    between atoms: C_21  and  C_23
REMARK   12  A    between atoms: C_21  and  O_24
REMARK                            x       y       z     vdW  Elec       q    Type
REMARK                         _______ _______ _______ _____ _____    ______ ____
ROOT
ATOM      1  C   UNL     1      -1.610   2.554 -21.448  0.00  0.00    +0.256 C 
ENDROOT
BRANCH   1   4
ATOM      2  C   UNL     1      -4.138   2.195 -20.961  0.00  0.00    +0.039 C 
ATOM      3  C   UNL     1      -3.759   3.140 -21.770  0.00  0.00    -0.073 C 
ATOM      4  C   UNL     1      -2.496   3.319 -22.014  0.00  0.00    +0.012 C 
BRANCH   3   5
ATOM      5  C   UNL     1      -4.646   3.905 -22.336  0.00  0.00    +0.033 C 
BRANCH   5   6
ATOM      6  C   UNL     1      -5.176   3.557 -23.471  0.00  0.00    +0.038 C 
BRANCH   6   7
ATOM      7  C   UNL     1      -4.892   4.222 -24.551  0.00  0.00    +0.146 C 
BRANCH   7   8
ATOM      8  C   UNL     1      -4.228   3.650 -25.511  0.00  0.00    +0.086 C 
ATOM      9  C   UNL     1      -2.939   3.801 -25.590  0.00  0.00    +0.043 C 
ATOM     10  C   UNL     1      -4.205   2.902 -26.575  0.00  0.00    +0.043 C 
BRANCH   8  11
ATOM     11  O   UNL     1      -5.333   3.145 -25.976  0.00  0.00    -0.387 OA
ATOM     12  H   UNL     1      -5.968   3.037 -25.250  0.00  0.00    +0.210 HD
ENDBRANCH   8  11
ENDBRANCH   7   8
BRANCH   7  13
ATOM     13  O   UNL     1      -5.273   5.459 -24.672  0.00  0.00    -0.389 OA
ATOM     14  H   UNL     1      -5.562   5.621 -25.584  0.00  0.00    +0.210 HD
ENDBRANCH   7  13
ENDBRANCH   6   7
ENDBRANCH   5   6
ENDBRANCH   3   5
ENDBRANCH   1   4
BRANCH   1  15
ATOM     15  O   UNL     1      -0.838   1.803 -22.178  0.00  0.00    -0.487 OA
BRANCH  15  16
ATOM     16  C   UNL     1       0.181   2.323 -22.794  0.00  0.00    +0.135 A 
ATOM     17  C   UNL     1       0.004   2.989 -23.896  0.00  0.00    +0.116 A 
ATOM     18  C   UNL     1       1.023   3.509 -24.513  0.00  0.00    +0.253 A 
ATOM     19  N   UNL     1       2.220   3.363 -24.027  0.00  0.00    -0.322 N 
ATOM     20  H   UNL     1       2.992   3.758 -24.494  0.00  0.00    +0.169 HD
ATOM     21  C   UNL     1       2.398   2.698 -22.925  0.00  0.00    +0.053 A 
ATOM     22  C   UNL     1       3.594   2.552 -22.438  0.00  0.00    +0.026 A 
ATOM     23  C   UNL     1       3.772   1.886 -21.336  0.00  0.00    +0.002 A 
ATOM     24  C   UNL     1       2.753   1.366 -20.720  0.00  0.00    +0.001 A 
ATOM     25  C   UNL     1       1.555   1.512 -21.205  0.00  0.00    +0.013 A 
ATOM     26  O   UNL     1       0.846   4.175 -25.615  0.00  0.00    -0.268 OA
ATOM     27  C   UNL     1       1.378   2.178 -22.308  0.00  0.00    +0.040 A 
ENDBRANCH  15  16
ENDBRANCH   1  15
TORSDOF 9
ENDMDL
MODEL 8
REMARK VINA RESULT:    -8.141      2.154      3.477
REMARK INTER + INTRA:         -12.721
REMARK INTER:                 -12.146
REMARK INTRA:                  -0.575
REMARK UNBOUND:                -0.534
REMARK  Name = ZINC000004492889
REMARK  12 active torsions:
REMARK  status: ('A' for Active; 'I' for Inactive)
REMARK    1  A    between atoms: C_1  and  C_2
REMARK    2  A    between atoms: C_2  and  C_17
REMARK    3  A    between atoms: C_3  and  C_4
REMARK    4  A    between atoms: C_4  and  O_5
REMARK    5  A    between atoms: O_5  and  C_6
REMARK    6  A    between atoms: C_17  and  C_18
REMARK    7  A    between atoms: C_18  and  C_19
REMARK    8  A    between atoms: C_19  and  O_20
REMARK    9  A    between atoms: C_19  and  C_21
REMARK   10  A    between atoms: C_21  and  C_22
REMARK   11  A    between atoms: C_21  and  C_23
REMARK   12  A    between atoms: C_21  and  O_24
REMARK                            x       y       z     vdW  Elec       q    Type
REMARK                         _______ _______ _______ _____ _____    ______ ____
ROOT
ATOM      1  C   UNL     1      -1.221   2.262 -21.846  0.00  0.00    +0.256 C 
ENDROOT
BRANCH   1   4
ATOM      2  C   UNL     1       0.829   1.565 -20.407  0.00  0.00    +0.039 C 
ATOM      3  C   UNL     1       0.865   1.429 -21.700  0.00  0.00    -0.073 C 
ATOM      4  C   UNL     1      -0.159   1.777 -22.419  0.00  0.00    +0.012 C 
BRANCH   3   5
ATOM      5  C   UNL     1       1.928   0.945 -22.272  0.00  0.00    +0.033 C 
BRANCH   5   6
ATOM      6  C   UNL     1       3.074   1.539 -22.125  0.00  0.00    +0.038 C 
BRANCH   6   7
ATOM      7  C   UNL     1       3.840   1.738 -23.156  0.00  0.00    +0.146 C 
BRANCH   7   8
ATOM      8  C   UNL     1       4.435   2.884 -23.312  0.00  0.00    +0.086 C 
ATOM      9  C   UNL     1       3.753   3.987 -23.227  0.00  0.00    +0.043 C 
ATOM     10  C   UNL     1       5.516   3.569 -23.542  0.00  0.00    +0.043 C 
BRANCH   8  11
ATOM     11  O   UNL     1       5.566   2.271 -23.501  0.00  0.00    -0.387 OA
ATOM     12  H   UNL     1       5.741   1.677 -22.754  0.00  0.00    +0.210 HD
ENDBRANCH   8  11
ENDBRANCH   7   8
BRANCH   7  13
ATOM     13  O   UNL     1       4.012   0.792 -24.031  0.00  0.00    -0.389 OA
ATOM     14  H   UNL     1       4.515   1.137 -24.785  0.00  0.00    +0.210 HD
ENDBRANCH   7  13
ENDBRANCH   6   7
ENDBRANCH   5   6
ENDBRANCH   3   5
ENDBRANCH   1   4
BRANCH   1  15
ATOM     15  O   UNL     1      -1.724   3.389 -22.255  0.00  0.00    -0.487 OA
BRANCH  15  16
ATOM     16  C   UNL     1      -2.909   3.417 -22.788  0.00  0.00    +0.135 A 
ATOM     17  C   UNL     1      -3.963   3.389 -22.028  0.00  0.00    +0.116 A 
ATOM     18  C   UNL     1      -5.150   3.417 -22.561  0.00  0.00    +0.253 A 
ATOM     19  N   UNL     1      -5.280   3.473 -23.853  0.00  0.00    -0.322 N 
ATOM     20  H   UNL     1      -6.178   3.494 -24.256  0.00  0.00    +0.169 HD
ATOM     21  C   UNL     1      -4.226   3.501 -24.612  0.00  0.00    +0.053 A 
ATOM     22  C   UNL     1      -4.356   3.557 -25.905  0.00  0.00    +0.026 A 
ATOM     23  C   UNL     1      -3.302   3.585 -26.664  0.00  0.00    +0.002 A 
ATOM     24  C   UNL     1      -2.117   3.557 -26.132  0.00  0.00    +0.001 A 
ATOM     25  C   UNL     1      -1.985   3.501 -24.840  0.00  0.00    +0.013 A 
ATOM     26  O   UNL     1      -6.204   3.389 -21.801  0.00  0.00    -0.268 OA
ATOM     27  C   UNL     1      -3.040   3.473 -24.080  0.00  0.00    +0.040 A 
ENDBRANCH  15  16
ENDBRANCH   1  15
TORSDOF 9
ENDMDL
MODEL 9
REMARK VINA RESULT:    -8.068      2.383      7.344
REMARK INTER + INTRA:         -12.611
REMARK INTER:                 -12.077
REMARK INTRA:                  -0.534
REMARK UNBOUND:                -0.534
REMARK  Name = ZINC000004492889
REMARK  12 active torsions:
REMARK  status: ('A' for Active; 'I' for Inactive)
REMARK    1  A    between atoms: C_1  and  C_2
REMARK    2  A    between atoms: C_2  and  C_17
REMARK    3  A    between atoms: C_3  and  C_4
REMARK    4  A    between atoms: C_4  and  O_5
REMARK    5  A    between atoms: O_5  and  C_6
REMARK    6  A    between atoms: C_17  and  C_18
REMARK    7  A    between atoms: C_18  and  C_19
REMARK    8  A    between atoms: C_19  and  O_20
REMARK    9  A    between atoms: C_19  and  C_21
REMARK   10  A    between atoms: C_21  and  C_22
REMARK   11  A    between atoms: C_21  and  C_23
REMARK   12  A    between atoms: C_21  and  O_24
REMARK                            x       y       z     vdW  Elec       q    Type
REMARK                         _______ _______ _______ _____ _____    ______ ____
ROOT
ATOM      1  C   UNL     1       1.639   2.817 -24.783  0.00  0.00    +0.256 C 
ENDROOT
BRANCH   1   4
ATOM      2  C   UNL     1       0.826   4.964 -23.563  0.00  0.00    +0.039 C 
ATOM      3  C   UNL     1      -0.036   4.166 -24.118  0.00  0.00    -0.073 C 
ATOM      4  C   UNL     1       0.370   3.092 -24.728  0.00  0.00    +0.012 C 
BRANCH   3   5
ATOM      5  C   UNL     1      -1.306   4.442 -24.064  0.00  0.00    +0.033 C 
BRANCH   5   6
ATOM      6  C   UNL     1      -2.034   3.964 -23.099  0.00  0.00    +0.038 C 
BRANCH   6   7
ATOM      7  C   UNL     1      -3.262   3.605 -23.329  0.00  0.00    +0.146 C 
BRANCH   7   8
ATOM      8  C   UNL     1      -4.016   3.202 -22.349  0.00  0.00    +0.086 C 
ATOM      9  C   UNL     1      -3.478   2.674 -21.290  0.00  0.00    +0.043 C 
ATOM     10  C   UNL     1      -5.198   3.042 -21.830  0.00  0.00    +0.043 C 
BRANCH   8  11
ATOM     11  O   UNL     1      -5.073   3.579 -23.007  0.00  0.00    -0.387 OA
ATOM     12  H   UNL     1      -4.805   3.960 -23.858  0.00  0.00    +0.210 HD
ENDBRANCH   8  11
ENDBRANCH   7   8
BRANCH   7  13
ATOM     13  O   UNL     1      -3.738   3.649 -24.538  0.00  0.00    -0.389 OA
ATOM     14  H   UNL     1      -4.678   3.409 -24.525  0.00  0.00    +0.210 HD
ENDBRANCH   7  13
ENDBRANCH   6   7
ENDBRANCH   5   6
ENDBRANCH   3   5
ENDBRANCH   1   4
BRANCH   1  15
ATOM     15  O   UNL     1       2.099   1.753 -24.193  0.00  0.00    -0.487 OA
BRANCH  15  16
ATOM     16  C   UNL     1       2.612   1.840 -23.002  0.00  0.00    +0.135 A 
ATOM     17  C   UNL     1       1.911   1.488 -21.966  0.00  0.00    +0.116 A 
ATOM     18  C   UNL     1       2.424   1.575 -20.774  0.00  0.00    +0.253 A 
ATOM     19  N   UNL     1       3.637   2.014 -20.619  0.00  0.00    -0.322 N 
ATOM     20  H   UNL     1       4.025   2.080 -19.716  0.00  0.00    +0.169 HD
ATOM     21  C   UNL     1       4.338   2.366 -21.656  0.00  0.00    +0.053 A 
ATOM     22  C   UNL     1       5.552   2.805 -21.501  0.00  0.00    +0.026 A 
ATOM     23  C   UNL     1       6.253   3.157 -22.538  0.00  0.00    +0.002 A 
ATOM     24  C   UNL     1       5.741   3.070 -23.729  0.00  0.00    +0.001 A 
ATOM     25  C   UNL     1       4.527   2.631 -23.884  0.00  0.00    +0.013 A 
ATOM     26  O   UNL     1       1.723   1.223 -19.737  0.00  0.00    -0.268 OA
ATOM     27  C   UNL     1       3.826   2.279 -22.847  0.00  0.00    +0.040 A 
ENDBRANCH  15  16
ENDBRANCH   1  15
TORSDOF 9
ENDMDL
