MODEL 1
REMARK VINA RESULT:    -7.096      0.000      0.000
REMARK INTER + INTRA:          -7.787
REMARK INTER:                  -7.716
REMARK INTRA:                  -0.070
REMARK UNBOUND:                -0.069
REMARK  Name = ZINC000000490789
REMARK  2 active torsions:
REMARK  status: ('A' for Active; 'I' for Inactive)
REMARK    1  A    between atoms: O_1  and  C_2
REMARK    2  A    between atoms: C_2  and  C_3
REMARK                            x       y       z     vdW  Elec       q    Type
REMARK                         _______ _______ _______ _____ _____    ______ ____
ROOT
ATOM      1  C   UNL     1      -2.641   3.780 -24.456  0.00  0.00    +0.063 C 
ATOM      2  C   UNL     1      -3.519   4.060 -25.373  0.00  0.00    +0.016 C 
ATOM      3  C   UNL     1      -4.783   4.096 -25.073  0.00  0.00    +0.051 C 
ATOM      4  C   UNL     1      -5.170   3.851 -23.857  0.00  0.00    +0.131 C 
ATOM      5  N   UNL     1      -4.293   3.570 -22.939  0.00  0.00    +0.238 N 
ATOM      6  H   UNL     1      -5.304   3.672 -23.020  0.00  0.00    +0.204 HD
ATOM      7  C   UNL     1      -4.679   3.325 -21.722  0.00  0.00    +0.131 C 
ATOM      8  C   UNL     1      -3.801   3.045 -20.806  0.00  0.00    +0.051 C 
ATOM      9  C   UNL     1      -2.537   3.009 -21.106  0.00  0.00    +0.011 C 
ATOM     10  C   UNL     1      -2.150   3.254 -22.322  0.00  0.00    +0.055 C 
ATOM     11  C   UNL     1      -3.028   3.535 -23.240  0.00  0.00    +0.070 C 
ENDROOT
BRANCH   1  12
ATOM     12  C   UNL     1      -1.376   3.744 -24.756  0.00  0.00    +0.164 C 
BRANCH  12  13
ATOM     13  O   UNL     1      -1.000   3.355 -25.937  0.00  0.00    -0.395 OA
ATOM     14  H   UNL     1      -0.143   3.757 -26.152  0.00  0.00    +0.209 HD
ENDBRANCH  12  13
ENDBRANCH   1  12
TORSDOF 2
ENDMDL
MODEL 2
REMARK VINA RESULT:    -7.072      1.498      2.515
REMARK INTER + INTRA:          -7.760
REMARK INTER:                  -7.697
REMARK INTRA:                  -0.063
REMARK UNBOUND:                -0.069
REMARK  Name = ZINC000000490789
REMARK  2 active torsions:
REMARK  status: ('A' for Active; 'I' for Inactive)
REMARK    1  A    between atoms: O_1  and  C_2
REMARK    2  A    between atoms: C_2  and  C_3
REMARK                            x       y       z     vdW  Elec       q    Type
REMARK                         _______ _______ _______ _____ _____    ______ ____
ROOT
ATOM      1  C   UNL     1      -4.130   3.678 -23.937  0.00  0.00    +0.063 C 
ATOM      2  C   UNL     1      -5.298   3.767 -23.375  0.00  0.00    +0.016 C 
ATOM      3  C   UNL     1      -5.473   3.326 -22.164  0.00  0.00    +0.051 C 
ATOM      4  C   UNL     1      -4.479   2.795 -21.517  0.00  0.00    +0.131 C 
ATOM      5  N   UNL     1      -3.310   2.705 -22.078  0.00  0.00    +0.238 N 
ATOM      6  H   UNL     1      -3.748   2.464 -21.190  0.00  0.00    +0.204 HD
ATOM      7  C   UNL     1      -2.316   2.174 -21.431  0.00  0.00    +0.131 C 
ATOM      8  C   UNL     1      -1.148   2.084 -21.993  0.00  0.00    +0.051 C 
ATOM      9  C   UNL     1      -0.973   2.526 -23.203  0.00  0.00    +0.011 C 
ATOM     10  C   UNL     1      -1.967   3.057 -23.851  0.00  0.00    +0.055 C 
ATOM     11  C   UNL     1      -3.136   3.146 -23.289  0.00  0.00    +0.070 C 
ENDROOT
BRANCH   1  12
ATOM     12  C   UNL     1      -3.955   4.119 -25.147  0.00  0.00    +0.164 C 
BRANCH  12  13
ATOM     13  O   UNL     1      -4.124   5.381 -25.409  0.00  0.00    -0.395 OA
ATOM     14  H   UNL     1      -4.388   5.486 -26.337  0.00  0.00    +0.209 HD
ENDBRANCH  12  13
ENDBRANCH   1  12
TORSDOF 2
ENDMDL
MODEL 3
REMARK VINA RESULT:    -6.976      1.000      2.643
REMARK INTER + INTRA:          -7.656
REMARK INTER:                  -7.588
REMARK INTRA:                  -0.068
REMARK UNBOUND:                -0.069
REMARK  Name = ZINC000000490789
REMARK  2 active torsions:
REMARK  status: ('A' for Active; 'I' for Inactive)
REMARK    1  A    between atoms: O_1  and  C_2
REMARK    2  A    between atoms: C_2  and  C_3
REMARK                            x       y       z     vdW  Elec       q    Type
REMARK                         _______ _______ _______ _____ _____    ______ ____
ROOT
ATOM      1  C   UNL     1      -2.125   3.061 -24.037  0.00  0.00    +0.063 C 
ATOM      2  C   UNL     1      -1.082   2.593 -23.419  0.00  0.00    +0.016 C 
ATOM      3  C   UNL     1      -1.172   2.227 -22.175  0.00  0.00    +0.051 C 
ATOM      4  C   UNL     1      -2.306   2.329 -21.548  0.00  0.00    +0.131 C 
ATOM      5  N   UNL     1      -3.351   2.797 -22.165  0.00  0.00    +0.238 N 
ATOM      6  H   UNL     1      -3.108   2.443 -21.240  0.00  0.00    +0.204 HD
ATOM      7  C   UNL     1      -4.485   2.899 -21.538  0.00  0.00    +0.131 C 
ATOM      8  C   UNL     1      -5.528   3.368 -22.156  0.00  0.00    +0.051 C 
ATOM      9  C   UNL     1      -5.438   3.734 -23.400  0.00  0.00    +0.011 C 
ATOM     10  C   UNL     1      -4.304   3.632 -24.027  0.00  0.00    +0.055 C 
ATOM     11  C   UNL     1      -3.259   3.163 -23.409  0.00  0.00    +0.070 C 
ENDROOT
BRANCH   1  12
ATOM     12  C   UNL     1      -2.035   3.427 -25.281  0.00  0.00    +0.164 C 
BRANCH  12  13
ATOM     13  O   UNL     1      -0.908   3.298 -25.915  0.00  0.00    -0.395 OA
ATOM     14  H   UNL     1      -1.004   3.642 -26.818  0.00  0.00    +0.209 HD
ENDBRANCH  12  13
ENDBRANCH   1  12
TORSDOF 2
ENDMDL
MODEL 4
REMARK VINA RESULT:    -6.785      1.350      3.233
REMARK INTER + INTRA:          -7.448
REMARK INTER:                  -7.377
REMARK INTRA:                  -0.071
REMARK UNBOUND:                -0.069
REMARK  Name = ZINC000000490789
REMARK  2 active torsions:
REMARK  status: ('A' for Active; 'I' for Inactive)
REMARK    1  A    between atoms: O_1  and  C_2
REMARK    2  A    between atoms: C_2  and  C_3
REMARK                            x       y       z     vdW  Elec       q    Type
REMARK                         _______ _______ _______ _____ _____    ______ ____
ROOT
ATOM      1  C   UNL     1      -2.098   2.643 -22.568  0.00  0.00    +0.063 C 
ATOM      2  C   UNL     1      -2.363   2.635 -21.295  0.00  0.00    +0.016 C 
ATOM      3  C   UNL     1      -3.533   3.012 -20.873  0.00  0.00    +0.051 C 
ATOM      4  C   UNL     1      -4.438   3.398 -21.722  0.00  0.00    +0.131 C 
ATOM      5  N   UNL     1      -4.174   3.406 -22.995  0.00  0.00    +0.238 N 
ATOM      6  H   UNL     1      -4.954   3.631 -22.378  0.00  0.00    +0.204 HD
ATOM      7  C   UNL     1      -5.079   3.792 -23.845  0.00  0.00    +0.131 C 
ATOM      8  C   UNL     1      -4.813   3.800 -25.117  0.00  0.00    +0.051 C 
ATOM      9  C   UNL     1      -3.643   3.423 -25.540  0.00  0.00    +0.011 C 
ATOM     10  C   UNL     1      -2.739   3.037 -24.690  0.00  0.00    +0.055 C 
ATOM     11  C   UNL     1      -3.004   3.029 -23.417  0.00  0.00    +0.070 C 
ENDROOT
BRANCH   1  12
ATOM     12  C   UNL     1      -0.928   2.266 -22.990  0.00  0.00    +0.164 C 
BRANCH  12  13
ATOM     13  O   UNL     1      -0.400   1.166 -22.544  0.00  0.00    -0.395 OA
ATOM     14  H   UNL     1       0.422   1.371 -22.071  0.00  0.00    +0.209 HD
ENDBRANCH  12  13
ENDBRANCH   1  12
TORSDOF 2
ENDMDL
MODEL 5
REMARK VINA RESULT:    -6.690      1.533      2.460
REMARK INTER + INTRA:          -7.346
REMARK INTER:                  -7.275
REMARK INTRA:                  -0.071
REMARK UNBOUND:                -0.069
REMARK  Name = ZINC000000490789
REMARK  2 active torsions:
REMARK  status: ('A' for Active; 'I' for Inactive)
REMARK    1  A    between atoms: O_1  and  C_2
REMARK    2  A    between atoms: C_2  and  C_3
REMARK                            x       y       z     vdW  Elec       q    Type
REMARK                         _______ _______ _______ _____ _____    ______ ____
ROOT
ATOM      1  C   UNL     1      -1.718   2.710 -22.875  0.00  0.00    +0.063 C 
ATOM      2  C   UNL     1      -1.177   3.120 -23.984  0.00  0.00    +0.016 C 
ATOM      3  C   UNL     1      -1.901   3.733 -24.873  0.00  0.00    +0.051 C 
ATOM      4  C   UNL     1      -3.165   3.937 -24.653  0.00  0.00    +0.131 C 
ATOM      5  N   UNL     1      -3.708   3.527 -23.545  0.00  0.00    +0.238 N 
ATOM      6  H   UNL     1      -3.989   4.013 -24.396  0.00  0.00    +0.204 HD
ATOM      7  C   UNL     1      -4.972   3.731 -23.325  0.00  0.00    +0.131 C 
ATOM      8  C   UNL     1      -5.513   3.321 -22.216  0.00  0.00    +0.051 C 
ATOM      9  C   UNL     1      -4.789   2.708 -21.328  0.00  0.00    +0.011 C 
ATOM     10  C   UNL     1      -3.525   2.504 -21.547  0.00  0.00    +0.055 C 
ATOM     11  C   UNL     1      -2.983   2.914 -22.656  0.00  0.00    +0.070 C 
ENDROOT
BRANCH   1  12
ATOM     12  C   UNL     1      -0.994   2.097 -21.987  0.00  0.00    +0.164 C 
BRANCH  12  13
ATOM     13  O   UNL     1      -0.244   1.096 -22.339  0.00  0.00    -0.395 OA
ATOM     14  H   UNL     1       0.689   1.356 -22.283  0.00  0.00    +0.209 HD
ENDBRANCH  12  13
ENDBRANCH   1  12
TORSDOF 2
ENDMDL
MODEL 6
REMARK VINA RESULT:    -6.609      2.130      3.982
REMARK INTER + INTRA:          -7.257
REMARK INTER:                  -7.195
REMARK INTRA:                  -0.062
REMARK UNBOUND:                -0.069
REMARK  Name = ZINC000000490789
REMARK  2 active torsions:
REMARK  status: ('A' for Active; 'I' for Inactive)
REMARK    1  A    between atoms: O_1  and  C_2
REMARK    2  A    between atoms: C_2  and  C_3
REMARK                            x       y       z     vdW  Elec       q    Type
REMARK                         _______ _______ _______ _____ _____    ______ ____
ROOT
ATOM      1  C   UNL     1      -2.967   2.999 -21.818  0.00  0.00    +0.063 C 
ATOM      2  C   UNL     1      -1.752   2.540 -21.756  0.00  0.00    +0.016 C 
ATOM      3  C   UNL     1      -1.088   2.308 -22.849  0.00  0.00    +0.051 C 
ATOM      4  C   UNL     1      -1.638   2.535 -24.004  0.00  0.00    +0.131 C 
ATOM      5  N   UNL     1      -2.853   2.995 -24.068  0.00  0.00    +0.238 N 
ATOM      6  H   UNL     1      -2.107   2.724 -24.708  0.00  0.00    +0.204 HD
ATOM      7  C   UNL     1      -3.402   3.222 -25.223  0.00  0.00    +0.131 C 
ATOM      8  C   UNL     1      -4.617   3.682 -25.286  0.00  0.00    +0.051 C 
ATOM      9  C   UNL     1      -5.281   3.914 -24.193  0.00  0.00    +0.011 C 
ATOM     10  C   UNL     1      -4.731   3.686 -23.037  0.00  0.00    +0.055 C 
ATOM     11  C   UNL     1      -3.516   3.227 -22.974  0.00  0.00    +0.070 C 
ENDROOT
BRANCH   1  12
ATOM     12  C   UNL     1      -3.631   3.231 -20.725  0.00  0.00    +0.164 C 
BRANCH  12  13
ATOM     13  O   UNL     1      -3.209   4.131 -19.888  0.00  0.00    -0.395 OA
ATOM     14  H   UNL     1      -3.362   3.824 -18.980  0.00  0.00    +0.209 HD
ENDBRANCH  12  13
ENDBRANCH   1  12
TORSDOF 2
ENDMDL
MODEL 7
REMARK VINA RESULT:    -6.459      2.114      4.084
REMARK INTER + INTRA:          -7.094
REMARK INTER:                  -7.025
REMARK INTRA:                  -0.068
REMARK UNBOUND:                -0.069
REMARK  Name = ZINC000000490789
REMARK  2 active torsions:
REMARK  status: ('A' for Active; 'I' for Inactive)
REMARK    1  A    between atoms: O_1  and  C_2
REMARK    2  A    between atoms: C_2  and  C_3
REMARK                            x       y       z     vdW  Elec       q    Type
REMARK                         _______ _______ _______ _____ _____    ______ ____
ROOT
ATOM      1  C   UNL     1      -3.897   3.374 -22.741  0.00  0.00    +0.063 C 
ATOM      2  C   UNL     1      -3.746   3.160 -21.468  0.00  0.00    +0.016 C 
ATOM      3  C   UNL     1      -2.562   2.923 -20.985  0.00  0.00    +0.051 C 
ATOM      4  C   UNL     1      -1.530   2.900 -21.774  0.00  0.00    +0.131 C 
ATOM      5  N   UNL     1      -1.680   3.114 -23.048  0.00  0.00    +0.238 N 
ATOM      6  H   UNL     1      -0.925   2.911 -22.394  0.00  0.00    +0.204 HD
ATOM      7  C   UNL     1      -0.648   3.092 -23.838  0.00  0.00    +0.131 C 
ATOM      8  C   UNL     1      -0.800   3.306 -25.111  0.00  0.00    +0.051 C 
ATOM      9  C   UNL     1      -1.983   3.543 -25.594  0.00  0.00    +0.011 C 
ATOM     10  C   UNL     1      -3.015   3.565 -24.804  0.00  0.00    +0.055 C 
ATOM     11  C   UNL     1      -2.864   3.351 -23.530  0.00  0.00    +0.070 C 
ENDROOT
BRANCH   1  12
ATOM     12  C   UNL     1      -5.080   3.610 -23.225  0.00  0.00    +0.164 C 
BRANCH  12  13
ATOM     13  O   UNL     1      -6.103   3.694 -22.427  0.00  0.00    -0.395 OA
ATOM     14  H   UNL     1      -6.656   4.447 -22.688  0.00  0.00    +0.209 HD
ENDBRANCH  12  13
ENDBRANCH   1  12
TORSDOF 2
ENDMDL
MODEL 8
REMARK VINA RESULT:    -6.241      2.051      3.727
REMARK INTER + INTRA:          -6.857
REMARK INTER:                  -6.814
REMARK INTRA:                  -0.044
REMARK UNBOUND:                -0.069
REMARK  Name = ZINC000000490789
REMARK  2 active torsions:
REMARK  status: ('A' for Active; 'I' for Inactive)
REMARK    1  A    between atoms: O_1  and  C_2
REMARK    2  A    between atoms: C_2  and  C_3
REMARK                            x       y       z     vdW  Elec       q    Type
REMARK                         _______ _______ _______ _____ _____    ______ ____
ROOT
ATOM      1  C   UNL     1       0.361   2.901 -24.228  0.00  0.00    +0.063 C 
ATOM      2  C   UNL     1       1.074   2.281 -23.336  0.00  0.00    +0.016 C 
ATOM      3  C   UNL     1       0.511   1.821 -22.259  0.00  0.00    +0.051 C 
ATOM      4  C   UNL     1      -0.766   1.981 -22.074  0.00  0.00    +0.131 C 
ATOM      5  N   UNL     1      -1.480   2.601 -22.965  0.00  0.00    +0.238 N 
ATOM      6  H   UNL     1      -1.616   2.147 -22.063  0.00  0.00    +0.204 HD
ATOM      7  C   UNL     1      -2.757   2.761 -22.780  0.00  0.00    +0.131 C 
ATOM      8  C   UNL     1      -3.470   3.381 -23.673  0.00  0.00    +0.051 C 
ATOM      9  C   UNL     1      -2.907   3.841 -24.750  0.00  0.00    +0.011 C 
ATOM     10  C   UNL     1      -1.630   3.681 -24.935  0.00  0.00    +0.055 C 
ATOM     11  C   UNL     1      -0.916   3.061 -24.042  0.00  0.00    +0.070 C 
ENDROOT
BRANCH   1  12
ATOM     12  C   UNL     1       0.924   3.362 -25.306  0.00  0.00    +0.164 C 
BRANCH  12  13
ATOM     13  O   UNL     1       1.364   2.540 -26.210  0.00  0.00    -0.395 OA
ATOM     14  H   UNL     1       0.675   1.889 -26.418  0.00  0.00    +0.209 HD
ENDBRANCH  12  13
ENDBRANCH   1  12
TORSDOF 2
ENDMDL
MODEL 9
REMARK VINA RESULT:    -6.158      2.334      3.117
REMARK INTER + INTRA:          -6.767
REMARK INTER:                  -6.698
REMARK INTRA:                  -0.069
REMARK UNBOUND:                -0.069
REMARK  Name = ZINC000000490789
REMARK  2 active torsions:
REMARK  status: ('A' for Active; 'I' for Inactive)
REMARK    1  A    between atoms: O_1  and  C_2
REMARK    2  A    between atoms: C_2  and  C_3
REMARK                            x       y       z     vdW  Elec       q    Type
REMARK                         _______ _______ _______ _____ _____    ______ ____
ROOT
ATOM      1  C   UNL     1      -0.110   3.211 -24.683  0.00  0.00    +0.063 C 
ATOM      2  C   UNL     1      -1.233   3.587 -25.219  0.00  0.00    +0.016 C 
ATOM      3  C   UNL     1      -2.354   3.373 -24.597  0.00  0.00    +0.051 C 
ATOM      4  C   UNL     1      -2.353   2.783 -23.439  0.00  0.00    +0.131 C 
ATOM      5  N   UNL     1      -1.230   2.406 -22.902  0.00  0.00    +0.238 N 
ATOM      6  H   UNL     1      -2.225   2.384 -22.681  0.00  0.00    +0.204 HD
ATOM      7  C   UNL     1      -1.229   1.816 -21.744  0.00  0.00    +0.131 C 
ATOM      8  C   UNL     1      -0.106   1.440 -21.208  0.00  0.00    +0.051 C 
ATOM      9  C   UNL     1       1.015   1.654 -21.830  0.00  0.00    +0.011 C 
ATOM     10  C   UNL     1       1.014   2.244 -22.988  0.00  0.00    +0.055 C 
ATOM     11  C   UNL     1      -0.110   2.621 -23.525  0.00  0.00    +0.070 C 
ENDROOT
BRANCH   1  12
ATOM     12  C   UNL     1       1.011   3.425 -25.305  0.00  0.00    +0.164 C 
BRANCH  12  13
ATOM     13  O   UNL     1       1.047   4.238 -26.318  0.00  0.00    -0.395 OA
ATOM     14  H   UNL     1       1.125   3.728 -27.139  0.00  0.00    +0.209 HD
ENDBRANCH  12  13
ENDBRANCH   1  12
TORSDOF 2
ENDMDL
