MODEL 1
REMARK VINA RESULT:   -10.020      0.000      0.000
REMARK INTER + INTRA:          -7.132
REMARK INTER:                 -10.394
REMARK INTRA:                   3.263
REMARK UNBOUND:                 3.474
REMARK  Name = ZINC000071404292
REMARK  5 active torsions:
REMARK  status: ('A' for Active; 'I' for Inactive)
REMARK    1  A    between atoms: C_1  and  C_2
REMARK    2  A    between atoms: C_2  and  O_4
REMARK    3  A    between atoms: O_4  and  C_5
REMARK    4  A    between atoms: C_9  and  C_10
REMARK    5  A    between atoms: C_19  and  C_20
REMARK                            x       y       z     vdW  Elec       q    Type
REMARK                         _______ _______ _______ _____ _____    ______ ____
ROOT
ATOM      1  C   UNL     1      -3.458   3.213 -23.087  0.00  0.00    +0.276 C 
ATOM      2  C   UNL     1      -2.148   2.957 -22.815  0.00  0.00    +0.155 A 
ATOM      3  O   UNL     1      -1.426   2.726 -21.781  0.00  0.00    -0.463 OA
ATOM      4  C   UNL     1      -0.220   2.556 -22.178  0.00  0.00    +0.199 A 
ATOM      5  C   UNL     1      -0.196   2.681 -23.452  0.00  0.00    -0.005 A 
ATOM      6  C   UNL     1       0.833   2.579 -24.208  0.00  0.00    +0.047 C 
ATOM      7  C   UNL     1      -1.391   2.929 -23.842  0.00  0.00    +0.044 A 
ATOM      8  C   UNL     1      -1.935   3.136 -24.946  0.00  0.00    +0.234 C 
ATOM      9  C   UNL     1      -3.176   3.329 -24.713  0.00  0.00    +0.032 C 
ATOM     10  C   UNL     1      -3.760   3.544 -25.826  0.00  0.00    +0.037 C 
ATOM     11  C   UNL     1      -2.878   3.485 -26.761  0.00  0.00    +0.336 C 
ATOM     12  O   UNL     1      -3.092   3.649 -28.012  0.00  0.00    -0.245 OA
ATOM     13  C   UNL     1      -4.981   3.746 -25.717  0.00  0.00    +0.045 C 
ATOM     14  C   UNL     1      -5.753   3.755 -24.481  0.00  0.00    +0.039 C 
ATOM     15  C   UNL     1      -5.571   3.570 -22.974  0.00  0.00    +0.155 C 
ATOM     16  O   UNL     1      -5.660   3.457 -21.702  0.00  0.00    -0.361 OA
ATOM     17  O   UNL     1      -1.749   3.232 -26.213  0.00  0.00    -0.449 OA
ATOM     18  C   UNL     1      -4.524   3.317 -22.278  0.00  0.00    +0.137 C 
ATOM     19  C   UNL     1      -4.174   3.169 -21.418  0.00  0.00    +0.048 C 
ENDROOT
BRANCH   1  20
ATOM     20  O   UNL     1      -2.957   2.978 -21.631  0.00  0.00    -0.451 OA
BRANCH  20  22
ATOM     21  C   UNL     1      -3.126   3.685 -19.489  0.00  0.00    +0.136 C 
ATOM     22  C   UNL     1      -2.771   3.926 -20.713  0.00  0.00    +0.305 C 
ATOM     23  O   UNL     1      -2.255   5.064 -21.003  0.00  0.00    -0.251 OA
ENDBRANCH  20  22
ENDBRANCH   1  20
TORSDOF 2
ENDMDL
MODEL 2
REMARK VINA RESULT:    -9.646      1.445      4.174
REMARK INTER + INTRA:          -6.737
REMARK INTER:                  -9.987
REMARK INTRA:                   3.251
REMARK UNBOUND:                 3.474
REMARK  Name = ZINC000071404292
REMARK  5 active torsions:
REMARK  status: ('A' for Active; 'I' for Inactive)
REMARK    1  A    between atoms: C_1  and  C_2
REMARK    2  A    between atoms: C_2  and  O_4
REMARK    3  A    between atoms: O_4  and  C_5
REMARK    4  A    between atoms: C_9  and  C_10
REMARK    5  A    between atoms: C_19  and  C_20
REMARK                            x       y       z     vdW  Elec       q    Type
REMARK                         _______ _______ _______ _____ _____    ______ ____
ROOT
ATOM      1  C   UNL     1      -2.013   3.124 -24.162  0.00  0.00    +0.276 C 
ATOM      2  C   UNL     1      -0.918   2.659 -23.501  0.00  0.00    +0.155 A 
ATOM      3  O   UNL     1       0.325   2.468 -23.750  0.00  0.00    -0.463 OA
ATOM      4  C   UNL     1       0.867   1.992 -22.691  0.00  0.00    +0.199 A 
ATOM      5  C   UNL     1      -0.037   1.889 -21.790  0.00  0.00    -0.005 A 
ATOM      6  C   UNL     1       0.123   1.453 -20.596  0.00  0.00    +0.047 C 
ATOM      7  C   UNL     1      -1.139   2.303 -22.295  0.00  0.00    +0.044 A 
ATOM      8  C   UNL     1      -2.311   2.423 -21.881  0.00  0.00    +0.234 C 
ATOM      9  C   UNL     1      -2.995   2.900 -22.849  0.00  0.00    +0.032 C 
ATOM     10  C   UNL     1      -4.200   3.034 -22.455  0.00  0.00    +0.037 C 
ATOM     11  C   UNL     1      -4.270   2.639 -21.232  0.00  0.00    +0.336 C 
ATOM     12  O   UNL     1      -5.321   2.626 -20.502  0.00  0.00    -0.245 OA
ATOM     13  C   UNL     1      -4.959   3.494 -23.323  0.00  0.00    +0.045 C 
ATOM     14  C   UNL     1      -4.597   3.872 -24.684  0.00  0.00    +0.039 C 
ATOM     15  C   UNL     1      -3.383   3.915 -25.613  0.00  0.00    +0.155 C 
ATOM     16  O   UNL     1      -2.525   4.042 -26.555  0.00  0.00    -0.361 OA
ATOM     17  O   UNL     1      -3.098   2.261 -20.880  0.00  0.00    -0.449 OA
ATOM     18  C   UNL     1      -2.161   3.579 -25.416  0.00  0.00    +0.137 C 
ATOM     19  C   UNL     1      -1.299   3.512 -25.786  0.00  0.00    +0.048 C 
ENDROOT
BRANCH   1  20
ATOM     20  O   UNL     1      -0.617   3.046 -24.848  0.00  0.00    -0.451 OA
BRANCH  20  22
ATOM     21  C   UNL     1       1.212   3.974 -25.801  0.00  0.00    +0.136 C 
ATOM     22  C   UNL     1       0.272   4.036 -24.910  0.00  0.00    +0.305 C 
ATOM     23  O   UNL     1       0.227   5.043 -24.116  0.00  0.00    -0.251 OA
ENDBRANCH  20  22
ENDBRANCH   1  20
TORSDOF 2
ENDMDL
MODEL 3
REMARK VINA RESULT:    -9.458      1.527      4.557
REMARK INTER + INTRA:          -6.537
REMARK INTER:                  -9.737
REMARK INTRA:                   3.200
REMARK UNBOUND:                 3.474
REMARK  Name = ZINC000071404292
REMARK  5 active torsions:
REMARK  status: ('A' for Active; 'I' for Inactive)
REMARK    1  A    between atoms: C_1  and  C_2
REMARK    2  A    between atoms: C_2  and  O_4
REMARK    3  A    between atoms: O_4  and  C_5
REMARK    4  A    between atoms: C_9  and  C_10
REMARK    5  A    between atoms: C_19  and  C_20
REMARK                            x       y       z     vdW  Elec       q    Type
REMARK                         _______ _______ _______ _____ _____    ______ ____
ROOT
ATOM      1  C   UNL     1      -1.722   2.896 -23.275  0.00  0.00    +0.276 C 
ATOM      2  C   UNL     1      -1.913   3.160 -24.597  0.00  0.00    +0.155 A 
ATOM      3  O   UNL     1      -1.198   3.233 -25.658  0.00  0.00    -0.463 OA
ATOM      4  C   UNL     1      -1.975   3.528 -26.633  0.00  0.00    +0.199 A 
ATOM      5  C   UNL     1      -3.166   3.637 -26.176  0.00  0.00    -0.005 A 
ATOM      6  C   UNL     1      -4.218   3.922 -26.851  0.00  0.00    +0.047 C 
ATOM      7  C   UNL     1      -3.124   3.408 -24.917  0.00  0.00    +0.044 A 
ATOM      8  C   UNL     1      -3.965   3.379 -23.995  0.00  0.00    +0.234 C 
ATOM      9  C   UNL     1      -3.328   3.089 -22.926  0.00  0.00    +0.032 C 
ATOM     10  C   UNL     1      -4.164   3.052 -21.964  0.00  0.00    +0.037 C 
ATOM     11  C   UNL     1      -5.331   3.320 -22.434  0.00  0.00    +0.336 C 
ATOM     12  O   UNL     1      -6.421   3.375 -21.765  0.00  0.00    -0.245 OA
ATOM     13  C   UNL     1      -3.648   2.777 -20.868  0.00  0.00    +0.045 C 
ATOM     14  C   UNL     1      -2.239   2.508 -20.613  0.00  0.00    +0.039 C 
ATOM     15  C   UNL     1      -0.901   2.426 -21.348  0.00  0.00    +0.155 C 
ATOM     16  O   UNL     1       0.311   2.303 -21.743  0.00  0.00    -0.361 OA
ATOM     17  O   UNL     1      -5.205   3.522 -23.693  0.00  0.00    -0.449 OA
ATOM     18  C   UNL     1      -0.610   2.598 -22.586  0.00  0.00    +0.137 C 
ATOM     19  C   UNL     1       0.070   2.605 -23.235  0.00  0.00    +0.048 C 
ENDROOT
BRANCH   1  20
ATOM     20  O   UNL     1      -0.540   2.887 -24.288  0.00  0.00    -0.451 OA
BRANCH  20  22
ATOM     21  C   UNL     1       1.461   3.610 -25.056  0.00  0.00    +0.136 C 
ATOM     22  C   UNL     1       0.339   3.874 -24.463  0.00  0.00    +0.305 C 
ATOM     23  O   UNL     1       0.108   5.071 -24.062  0.00  0.00    -0.251 OA
ENDBRANCH  20  22
ENDBRANCH   1  20
TORSDOF 2
ENDMDL
MODEL 4
REMARK VINA RESULT:    -9.196      1.358      2.307
REMARK INTER + INTRA:          -6.260
REMARK INTER:                  -9.581
REMARK INTRA:                   3.322
REMARK UNBOUND:                 3.474
REMARK  Name = ZINC000071404292
REMARK  5 active torsions:
REMARK  status: ('A' for Active; 'I' for Inactive)
REMARK    1  A    between atoms: C_1  and  C_2
REMARK    2  A    between atoms: C_2  and  O_4
REMARK    3  A    between atoms: O_4  and  C_5
REMARK    4  A    between atoms: C_9  and  C_10
REMARK    5  A    between atoms: C_19  and  C_20
REMARK                            x       y       z     vdW  Elec       q    Type
REMARK                         _______ _______ _______ _____ _____    ______ ____
ROOT
ATOM      1  C   UNL     1      -2.121   3.220 -22.569  0.00  0.00    +0.276 C 
ATOM      2  C   UNL     1      -0.858   3.268 -23.076  0.00  0.00    +0.155 A 
ATOM      3  O   UNL     1       0.338   3.094 -22.649  0.00  0.00    -0.463 OA
ATOM      4  C   UNL     1       1.135   3.285 -23.634  0.00  0.00    +0.199 A 
ATOM      5  C   UNL     1       0.435   3.576 -24.665  0.00  0.00    -0.005 A 
ATOM      6  C   UNL     1       0.878   3.834 -25.839  0.00  0.00    +0.047 C 
ATOM      7  C   UNL     1      -0.797   3.565 -24.316  0.00  0.00    +0.044 A 
ATOM      8  C   UNL     1      -1.882   3.770 -24.898  0.00  0.00    +0.234 C 
ATOM      9  C   UNL     1      -2.802   3.613 -24.025  0.00  0.00    +0.032 C 
ATOM     10  C   UNL     1      -3.926   3.817 -24.592  0.00  0.00    +0.037 C 
ATOM     11  C   UNL     1      -3.708   4.103 -25.827  0.00  0.00    +0.336 C 
ATOM     12  O   UNL     1      -4.596   4.369 -26.709  0.00  0.00    -0.245 OA
ATOM     13  C   UNL     1      -4.898   3.689 -23.829  0.00  0.00    +0.045 C 
ATOM     14  C   UNL     1      -4.854   3.344 -22.414  0.00  0.00    +0.039 C 
ATOM     15  C   UNL     1      -3.848   3.017 -21.310  0.00  0.00    +0.155 C 
ATOM     16  O   UNL     1      -3.204   2.721 -20.244  0.00  0.00    -0.361 OA
ATOM     17  O   UNL     1      -2.441   4.073 -26.014  0.00  0.00    -0.449 OA
ATOM     18  C   UNL     1      -2.567   2.947 -21.333  0.00  0.00    +0.137 C 
ATOM     19  C   UNL     1      -1.784   2.781 -20.839  0.00  0.00    +0.048 C 
ENDROOT
BRANCH   1  20
ATOM     20  O   UNL     1      -0.874   2.931 -21.682  0.00  0.00    -0.451 OA
BRANCH  20  22
ATOM     21  C   UNL     1       0.485   1.585 -20.476  0.00  0.00    +0.136 C 
ATOM     22  C   UNL     1      -0.336   1.731 -21.468  0.00  0.00    +0.305 C 
ATOM     23  O   UNL     1      -0.606   0.721 -22.212  0.00  0.00    -0.251 OA
ENDBRANCH  20  22
ENDBRANCH   1  20
TORSDOF 2
ENDMDL
MODEL 5
REMARK VINA RESULT:    -9.148      1.676      5.531
REMARK INTER + INTRA:          -6.210
REMARK INTER:                  -9.455
REMARK INTRA:                   3.246
REMARK UNBOUND:                 3.474
REMARK  Name = ZINC000071404292
REMARK  5 active torsions:
REMARK  status: ('A' for Active; 'I' for Inactive)
REMARK    1  A    between atoms: C_1  and  C_2
REMARK    2  A    between atoms: C_2  and  O_4
REMARK    3  A    between atoms: O_4  and  C_5
REMARK    4  A    between atoms: C_9  and  C_10
REMARK    5  A    between atoms: C_19  and  C_20
REMARK                            x       y       z     vdW  Elec       q    Type
REMARK                         _______ _______ _______ _____ _____    ______ ____
ROOT
ATOM      1  C   UNL     1      -0.827   3.194 -23.854  0.00  0.00    +0.276 C 
ATOM      2  C   UNL     1      -2.042   3.258 -23.242  0.00  0.00    +0.155 A 
ATOM      3  O   UNL     1      -3.225   3.658 -23.530  0.00  0.00    -0.463 OA
ATOM      4  C   UNL     1      -3.968   3.450 -22.508  0.00  0.00    +0.199 A 
ATOM      5  C   UNL     1      -3.248   2.923 -21.591  0.00  0.00    -0.005 A 
ATOM      6  C   UNL     1      -3.639   2.573 -20.422  0.00  0.00    +0.047 C 
ATOM      7  C   UNL     1      -2.057   2.806 -22.048  0.00  0.00    +0.044 A 
ATOM      8  C   UNL     1      -0.977   2.370 -21.600  0.00  0.00    +0.234 C 
ATOM      9  C   UNL     1      -0.110   2.512 -22.527  0.00  0.00    +0.032 C 
ATOM     10  C   UNL     1       1.007   2.074 -22.097  0.00  0.00    +0.037 C 
ATOM     11  C   UNL     1       0.838   1.655 -20.892  0.00  0.00    +0.336 C 
ATOM     12  O   UNL     1       1.737   1.146 -20.136  0.00  0.00    -0.245 OA
ATOM     13  C   UNL     1       1.929   2.164 -22.925  0.00  0.00    +0.045 C 
ATOM     14  C   UNL     1       1.835   2.703 -24.276  0.00  0.00    +0.039 C 
ATOM     15  C   UNL     1       0.813   3.318 -25.232  0.00  0.00    +0.155 C 
ATOM     16  O   UNL     1       0.147   3.847 -26.189  0.00  0.00    -0.361 OA
ATOM     17  O   UNL     1      -0.392   1.840 -20.587  0.00  0.00    -0.449 OA
ATOM     18  C   UNL     1      -0.436   3.567 -25.082  0.00  0.00    +0.137 C 
ATOM     19  C   UNL     1      -1.218   3.909 -25.476  0.00  0.00    +0.048 C 
ENDROOT
BRANCH   1  20
ATOM     20  O   UNL     1      -2.077   3.777 -24.578  0.00  0.00    -0.451 OA
BRANCH  20  22
ATOM     21  C   UNL     1      -3.365   3.756 -26.436  0.00  0.00    +0.136 C 
ATOM     22  C   UNL     1      -2.857   3.114 -25.431  0.00  0.00    +0.305 C 
ATOM     23  O   UNL     1      -3.118   1.866 -25.287  0.00  0.00    -0.251 OA
ENDBRANCH  20  22
ENDBRANCH   1  20
TORSDOF 2
ENDMDL
MODEL 6
REMARK VINA RESULT:    -9.104      1.450      3.945
REMARK INTER + INTRA:          -6.163
REMARK INTER:                  -9.432
REMARK INTRA:                   3.269
REMARK UNBOUND:                 3.474
REMARK  Name = ZINC000071404292
REMARK  5 active torsions:
REMARK  status: ('A' for Active; 'I' for Inactive)
REMARK    1  A    between atoms: C_1  and  C_2
REMARK    2  A    between atoms: C_2  and  O_4
REMARK    3  A    between atoms: O_4  and  C_5
REMARK    4  A    between atoms: C_9  and  C_10
REMARK    5  A    between atoms: C_19  and  C_20
REMARK                            x       y       z     vdW  Elec       q    Type
REMARK                         _______ _______ _______ _____ _____    ______ ____
ROOT
ATOM      1  C   UNL     1      -1.312   2.452 -22.670  0.00  0.00    +0.276 C 
ATOM      2  C   UNL     1      -2.523   2.879 -23.123  0.00  0.00    +0.155 A 
ATOM      3  O   UNL     1      -3.748   2.814 -22.750  0.00  0.00    -0.463 OA
ATOM      4  C   UNL     1      -4.456   3.428 -23.623  0.00  0.00    +0.199 A 
ATOM      5  C   UNL     1      -3.672   3.871 -24.533  0.00  0.00    -0.005 A 
ATOM      6  C   UNL     1      -4.012   4.537 -25.574  0.00  0.00    +0.047 C 
ATOM      7  C   UNL     1      -2.478   3.530 -24.221  0.00  0.00    +0.044 A 
ATOM      8  C   UNL     1      -1.350   3.690 -24.731  0.00  0.00    +0.234 C 
ATOM      9  C   UNL     1      -0.511   3.118 -23.955  0.00  0.00    +0.032 C 
ATOM     10  C   UNL     1       0.654   3.266 -24.453  0.00  0.00    +0.037 C 
ATOM     11  C   UNL     1       0.542   3.934 -25.546  0.00  0.00    +0.336 C 
ATOM     12  O   UNL     1       1.500   4.276 -26.324  0.00  0.00    -0.245 OA
ATOM     13  C   UNL     1       1.554   2.744 -23.774  0.00  0.00    +0.045 C 
ATOM     14  C   UNL     1       1.388   2.016 -22.522  0.00  0.00    +0.039 C 
ATOM     15  C   UNL     1       0.295   1.575 -21.549  0.00  0.00    +0.155 C 
ATOM     16  O   UNL     1      -0.436   1.106 -20.608  0.00  0.00    -0.361 OA
ATOM     17  O   UNL     1      -0.700   4.196 -25.716  0.00  0.00    -0.449 OA
ATOM     18  C   UNL     1      -0.976   1.754 -21.574  0.00  0.00    +0.137 C 
ATOM     19  C   UNL     1      -1.795   1.600 -21.140  0.00  0.00    +0.048 C 
ENDROOT
BRANCH   1  20
ATOM     20  O   UNL     1      -2.627   2.155 -21.890  0.00  0.00    -0.451 OA
BRANCH  20  22
ATOM     21  C   UNL     1      -4.040   2.382 -20.139  0.00  0.00    +0.136 C 
ATOM     22  C   UNL     1      -3.125   2.896 -20.900  0.00  0.00    +0.305 C 
ATOM     23  O   UNL     1      -2.728   4.096 -20.681  0.00  0.00    -0.251 OA
ENDBRANCH  20  22
ENDBRANCH   1  20
TORSDOF 2
ENDMDL
MODEL 7
REMARK VINA RESULT:    -8.738      1.477      3.959
REMARK INTER + INTRA:          -5.775
REMARK INTER:                  -9.012
REMARK INTRA:                   3.237
REMARK UNBOUND:                 3.474
REMARK  Name = ZINC000071404292
REMARK  5 active torsions:
REMARK  status: ('A' for Active; 'I' for Inactive)
REMARK    1  A    between atoms: C_1  and  C_2
REMARK    2  A    between atoms: C_2  and  O_4
REMARK    3  A    between atoms: O_4  and  C_5
REMARK    4  A    between atoms: C_9  and  C_10
REMARK    5  A    between atoms: C_19  and  C_20
REMARK                            x       y       z     vdW  Elec       q    Type
REMARK                         _______ _______ _______ _____ _____    ______ ____
ROOT
ATOM      1  C   UNL     1      -1.017   3.075 -23.215  0.00  0.00    +0.276 C 
ATOM      2  C   UNL     1      -1.961   2.902 -22.249  0.00  0.00    +0.155 A 
ATOM      3  O   UNL     1      -1.991   2.631 -20.996  0.00  0.00    -0.463 OA
ATOM      4  C   UNL     1      -3.219   2.600 -20.633  0.00  0.00    +0.199 A 
ATOM      5  C   UNL     1      -3.946   2.852 -21.656  0.00  0.00    -0.005 A 
ATOM      6  C   UNL     1      -5.226   2.910 -21.687  0.00  0.00    +0.047 C 
ATOM      7  C   UNL     1      -3.164   3.038 -22.654  0.00  0.00    +0.044 A 
ATOM      8  C   UNL     1      -3.322   3.308 -23.862  0.00  0.00    +0.234 C 
ATOM      9  C   UNL     1      -2.155   3.374 -24.379  0.00  0.00    +0.032 C 
ATOM     10  C   UNL     1      -2.284   3.649 -25.617  0.00  0.00    +0.037 C 
ATOM     11  C   UNL     1      -3.540   3.755 -25.877  0.00  0.00    +0.336 C 
ATOM     12  O   UNL     1      -4.056   4.024 -27.017  0.00  0.00    -0.245 OA
ATOM     13  C   UNL     1      -1.204   3.737 -26.223  0.00  0.00    +0.045 C 
ATOM     14  C   UNL     1       0.127   3.561 -25.656  0.00  0.00    +0.039 C 
ATOM     15  C   UNL     1       0.811   3.244 -24.326  0.00  0.00    +0.155 C 
ATOM     16  O   UNL     1       1.592   2.999 -23.341  0.00  0.00    -0.361 OA
ATOM     17  O   UNL     1      -4.180   3.543 -24.788  0.00  0.00    -0.449 OA
ATOM     18  C   UNL     1       0.322   3.010 -23.163  0.00  0.00    +0.137 C 
ATOM     19  C   UNL     1       0.506   2.807 -22.264  0.00  0.00    +0.048 C 
ENDROOT
BRANCH   1  20
ATOM     20  O   UNL     1      -0.628   2.739 -21.745  0.00  0.00    -0.451 OA
BRANCH  20  22
ATOM     21  C   UNL     1       0.716   1.559 -20.362  0.00  0.00    +0.136 C 
ATOM     22  C   UNL     1      -0.163   1.567 -21.315  0.00  0.00    +0.305 C 
ATOM     23  O   UNL     1      -0.557   0.453 -21.814  0.00  0.00    -0.251 OA
ENDBRANCH  20  22
ENDBRANCH   1  20
TORSDOF 2
ENDMDL
MODEL 8
REMARK VINA RESULT:    -8.486      1.633      2.370
REMARK INTER + INTRA:          -5.508
REMARK INTER:                  -8.725
REMARK INTRA:                   3.217
REMARK UNBOUND:                 3.474
REMARK  Name = ZINC000071404292
REMARK  5 active torsions:
REMARK  status: ('A' for Active; 'I' for Inactive)
REMARK    1  A    between atoms: C_1  and  C_2
REMARK    2  A    between atoms: C_2  and  O_4
REMARK    3  A    between atoms: O_4  and  C_5
REMARK    4  A    between atoms: C_9  and  C_10
REMARK    5  A    between atoms: C_19  and  C_20
REMARK                            x       y       z     vdW  Elec       q    Type
REMARK                         _______ _______ _______ _____ _____    ______ ____
ROOT
ATOM      1  C   UNL     1      -2.238   2.868 -23.093  0.00  0.00    +0.276 C 
ATOM      2  C   UNL     1      -1.424   2.296 -22.162  0.00  0.00    +0.155 A 
ATOM      3  O   UNL     1      -1.547   1.745 -21.012  0.00  0.00    -0.463 OA
ATOM      4  C   UNL     1      -0.379   1.392 -20.621  0.00  0.00    +0.199 A 
ATOM      5  C   UNL     1       0.463   1.723 -21.527  0.00  0.00    -0.005 A 
ATOM      6  C   UNL     1       1.730   1.534 -21.496  0.00  0.00    +0.047 C 
ATOM      7  C   UNL     1      -0.187   2.282 -22.478  0.00  0.00    +0.044 A 
ATOM      8  C   UNL     1       0.116   2.785 -23.580  0.00  0.00    +0.234 C 
ATOM      9  C   UNL     1      -0.973   3.195 -24.108  0.00  0.00    +0.032 C 
ATOM     10  C   UNL     1      -0.694   3.715 -25.239  0.00  0.00    +0.037 C 
ATOM     11  C   UNL     1       0.577   3.629 -25.418  0.00  0.00    +0.336 C 
ATOM     12  O   UNL     1       1.225   4.045 -26.441  0.00  0.00    -0.245 OA
ATOM     13  C   UNL     1      -1.687   4.151 -25.844  0.00  0.00    +0.045 C 
ATOM     14  C   UNL     1      -3.070   4.115 -25.386  0.00  0.00    +0.039 C 
ATOM     15  C   UNL     1      -3.907   3.643 -24.197  0.00  0.00    +0.155 C 
ATOM     16  O   UNL     1      -4.797   3.337 -23.329  0.00  0.00    -0.361 OA
ATOM     17  O   UNL     1       1.076   3.052 -24.390  0.00  0.00    -0.449 OA
ATOM     18  C   UNL     1      -3.566   3.058 -23.107  0.00  0.00    +0.137 C 
ATOM     19  C   UNL     1      -3.858   2.695 -22.290  0.00  0.00    +0.048 C 
ENDROOT
BRANCH   1  20
ATOM     20  O   UNL     1      -2.801   2.288 -21.761  0.00  0.00    -0.451 OA
BRANCH  20  22
ATOM     21  C   UNL     1      -4.166   2.508 -19.972  0.00  0.00    +0.136 C 
ATOM     22  C   UNL     1      -3.237   3.006 -20.727  0.00  0.00    +0.305 C 
ATOM     23  O   UNL     1      -2.767   4.169 -20.458  0.00  0.00    -0.251 OA
ENDBRANCH  20  22
ENDBRANCH   1  20
TORSDOF 2
ENDMDL
MODEL 9
REMARK VINA RESULT:    -8.253      2.541      5.395
REMARK INTER + INTRA:          -5.262
REMARK INTER:                  -8.735
REMARK INTRA:                   3.474
REMARK UNBOUND:                 3.474
REMARK  Name = ZINC000071404292
REMARK  5 active torsions:
REMARK  status: ('A' for Active; 'I' for Inactive)
REMARK    1  A    between atoms: C_1  and  C_2
REMARK    2  A    between atoms: C_2  and  O_4
REMARK    3  A    between atoms: O_4  and  C_5
REMARK    4  A    between atoms: C_9  and  C_10
REMARK    5  A    between atoms: C_19  and  C_20
REMARK                            x       y       z     vdW  Elec       q    Type
REMARK                         _______ _______ _______ _____ _____    ______ ____
ROOT
ATOM      1  C   UNL     1       0.917   2.933 -23.646  0.00  0.00    +0.276 C 
ATOM      2  C   UNL     1       1.692   2.429 -22.646  0.00  0.00    +0.155 A 
ATOM      3  O   UNL     1       2.939   2.238 -22.423  0.00  0.00    -0.463 OA
ATOM      4  C   UNL     1       3.052   1.712 -21.261  0.00  0.00    +0.199 A 
ATOM      5  C   UNL     1       1.879   1.577 -20.767  0.00  0.00    -0.005 A 
ATOM      6  C   UNL     1       1.586   1.087 -19.619  0.00  0.00    +0.047 C 
ATOM      7  C   UNL     1       1.040   2.022 -21.626  0.00  0.00    +0.044 A 
ATOM      8  C   UNL     1      -0.202   2.134 -21.673  0.00  0.00    +0.234 C 
ATOM      9  C   UNL     1      -0.481   2.659 -22.804  0.00  0.00    +0.032 C 
ATOM     10  C   UNL     1      -1.747   2.786 -22.882  0.00  0.00    +0.037 C 
ATOM     11  C   UNL     1      -2.264   2.338 -21.791  0.00  0.00    +0.336 C 
ATOM     12  O   UNL     1      -3.511   2.302 -21.506  0.00  0.00    -0.245 OA
ATOM     13  C   UNL     1      -2.132   3.291 -23.949  0.00  0.00    +0.045 C 
ATOM     14  C   UNL     1      -1.293   3.724 -25.059  0.00  0.00    +0.039 C 
ATOM     15  C   UNL     1       0.179   3.798 -25.466  0.00  0.00    +0.155 C 
ATOM     16  O   UNL     1       1.325   3.959 -26.015  0.00  0.00    -0.361 OA
ATOM     17  O   UNL     1      -1.304   1.935 -21.045  0.00  0.00    -0.449 OA
ATOM     18  C   UNL     1       1.243   3.443 -24.844  0.00  0.00    +0.137 C 
ATOM     19  C   UNL     1       2.181   3.385 -24.869  0.00  0.00    +0.048 C 
ENDROOT
BRANCH   1  20
ATOM     20  O   UNL     1       2.469   2.872 -23.767  0.00  0.00    -0.451 OA
BRANCH  20  22
ATOM     21  C   UNL     1       4.572   3.697 -23.677  0.00  0.00    +0.136 C 
ATOM     22  C   UNL     1       3.311   3.844 -23.416  0.00  0.00    +0.305 C 
ATOM     23  O   UNL     1       2.912   4.913 -22.831  0.00  0.00    -0.251 OA
ENDBRANCH  20  22
ENDBRANCH   1  20
TORSDOF 2
ENDMDL
