MODEL 1
REMARK VINA RESULT:   -10.229      0.000      0.000
REMARK INTER + INTRA:         -13.892
REMARK INTER:                 -13.912
REMARK INTRA:                   0.020
REMARK UNBOUND:                 0.223
REMARK  Name = ZINC000085340887
REMARK  10 active torsions:
REMARK  status: ('A' for Active; 'I' for Inactive)
REMARK    1  A    between atoms: C_1  and  C_2
REMARK    2  A    between atoms: C_6  and  C_7
REMARK    3  A    between atoms: C_6  and  C_9
REMARK    4  A    between atoms: C_7  and  O_8
REMARK    5  A    between atoms: C_9  and  O_10
REMARK    6  A    between atoms: C_14  and  C_15
REMARK    7  A    between atoms: C_15  and  O_16
REMARK    8  A    between atoms: C_17  and  C_18
REMARK    9  A    between atoms: C_18  and  C_19
REMARK   10  A    between atoms: C_19  and  C_20
REMARK                            x       y       z     vdW  Elec       q    Type
REMARK                         _______ _______ _______ _____ _____    ______ ____
ROOT
ATOM      1  C   UNL     1      -0.694   2.881 -21.994  0.00  0.00    +0.012 C 
ATOM      2  C   UNL     1      -1.793   3.149 -22.633  0.00  0.00    -0.025 C 
ATOM      3  C   UNL     1      -1.833   2.863 -21.366  0.00  0.00    +0.007 C 
ATOM      4  C   UNL     1      -2.970   2.844 -20.738  0.00  0.00    +0.001 C 
ATOM      5  C   UNL     1      -4.071   3.112 -21.378  0.00  0.00    +0.012 C 
ATOM      6  C   UNL     1      -4.031   3.399 -22.645  0.00  0.00    +0.020 C 
ATOM      7  C   UNL     1      -0.656   3.168 -23.261  0.00  0.00    +0.001 C 
ATOM      8  C   UNL     1      -0.617   3.455 -24.528  0.00  0.00    +0.018 C 
ATOM      9  C   UNL     1      -1.716   3.724 -25.168  0.00  0.00    +0.006 C 
ATOM     10  C   UNL     1      -2.855   3.705 -24.540  0.00  0.00    +0.005 C 
ATOM     11  C   UNL     1      -2.893   3.418 -23.273  0.00  0.00    +0.006 C 
ENDROOT
BRANCH   6  12
ATOM     12  C   UNL     1      -4.437   3.718 -23.839  0.00  0.00    +0.165 C 
BRANCH  12  13
ATOM     13  O   UNL     1      -5.604   4.266 -24.003  0.00  0.00    -0.394 OA
ATOM     14  H   UNL     1      -5.701   5.012 -23.390  0.00  0.00    +0.209 HD
ENDBRANCH  12  13
ENDBRANCH   6  12
BRANCH   6  15
ATOM     15  C   UNL     1      -5.311   3.491 -22.431  0.00  0.00    +0.165 C 
BRANCH  15  16
ATOM     16  O   UNL     1      -5.910   2.610 -21.686  0.00  0.00    -0.394 OA
ATOM     17  H   UNL     1      -6.849   2.569 -21.927  0.00  0.00    +0.209 HD
ENDBRANCH  15  16
ENDBRANCH   6  15
BRANCH   8  18
ATOM     18  C   UNL     1       0.521   3.474 -25.155  0.00  0.00    +0.159 C 
BRANCH  18  19
ATOM     19  O   UNL     1       0.778   2.579 -26.064  0.00  0.00    -0.395 OA
ATOM     20  H   UNL     1       1.736   2.532 -26.209  0.00  0.00    +0.209 HD
ENDBRANCH  18  19
ENDBRANCH   8  18
BRANCH   7  21
ATOM     21  C   UNL     1       0.444   2.900 -22.621  0.00  0.00    +0.009 C 
BRANCH  21  22
ATOM     22  C   UNL     1       0.755   1.667 -22.352  0.00  0.00    +0.042 C 
BRANCH  22  23
ATOM     23  C   UNL     1       2.000   1.334 -22.177  0.00  0.00    +0.036 C 
ATOM     24  C   UNL     1       2.653   1.385 -21.054  0.00  0.00    +0.024 C 
ATOM     25  C   UNL     1       3.866   0.974 -21.277  0.00  0.00    +0.260 C 
ATOM     26  O   UNL     1       3.963   0.670 -22.536  0.00  0.00    -0.457 OA
ATOM     27  C   UNL     1       2.809   0.892 -23.093  0.00  0.00    +0.335 C 
ATOM     28  O   UNL     1       2.516   0.706 -24.346  0.00  0.00    -0.245 OA
ENDBRANCH  22  23
ENDBRANCH  21  22
ENDBRANCH   7  21
TORSDOF 9
ENDMDL
MODEL 2
REMARK VINA RESULT:    -9.644      1.957      3.212
REMARK INTER + INTRA:         -13.086
REMARK INTER:                 -13.505
REMARK INTRA:                   0.419
REMARK UNBOUND:                 0.223
REMARK  Name = ZINC000085340887
REMARK  10 active torsions:
REMARK  status: ('A' for Active; 'I' for Inactive)
REMARK    1  A    between atoms: C_1  and  C_2
REMARK    2  A    between atoms: C_6  and  C_7
REMARK    3  A    between atoms: C_6  and  C_9
REMARK    4  A    between atoms: C_7  and  O_8
REMARK    5  A    between atoms: C_9  and  O_10
REMARK    6  A    between atoms: C_14  and  C_15
REMARK    7  A    between atoms: C_15  and  O_16
REMARK    8  A    between atoms: C_17  and  C_18
REMARK    9  A    between atoms: C_18  and  C_19
REMARK   10  A    between atoms: C_19  and  C_20
REMARK                            x       y       z     vdW  Elec       q    Type
REMARK                         _______ _______ _______ _____ _____    ______ ____
ROOT
ATOM      1  C   UNL     1      -0.602   3.062 -24.554  0.00  0.00    +0.012 C 
ATOM      2  C   UNL     1      -1.698   3.090 -23.858  0.00  0.00    -0.025 C 
ATOM      3  C   UNL     1      -1.695   3.529 -25.082  0.00  0.00    +0.007 C 
ATOM      4  C   UNL     1      -2.787   3.995 -25.610  0.00  0.00    +0.001 C 
ATOM      5  C   UNL     1      -3.885   4.022 -24.914  0.00  0.00    +0.012 C 
ATOM      6  C   UNL     1      -3.889   3.583 -23.691  0.00  0.00    +0.020 C 
ATOM      7  C   UNL     1      -0.607   2.624 -23.330  0.00  0.00    +0.001 C 
ATOM      8  C   UNL     1      -0.612   2.185 -22.107  0.00  0.00    +0.018 C 
ATOM      9  C   UNL     1      -1.709   2.212 -21.410  0.00  0.00    +0.006 C 
ATOM     10  C   UNL     1      -2.802   2.678 -21.939  0.00  0.00    +0.005 C 
ATOM     11  C   UNL     1      -2.797   3.117 -23.162  0.00  0.00    +0.006 C 
ENDROOT
BRANCH   6  12
ATOM     12  C   UNL     1      -4.327   3.268 -22.507  0.00  0.00    +0.165 C 
BRANCH  12  13
ATOM     13  O   UNL     1      -5.541   3.574 -22.161  0.00  0.00    -0.394 OA
ATOM     14  H   UNL     1      -6.062   2.763 -22.051  0.00  0.00    +0.209 HD
ENDBRANCH  12  13
ENDBRANCH   6  12
BRANCH   6  15
ATOM     15  C   UNL     1      -5.135   3.940 -23.808  0.00  0.00    +0.165 C 
BRANCH  15  16
ATOM     16  O   UNL     1      -5.442   5.020 -24.462  0.00  0.00    -0.394 OA
ATOM     17  H   UNL     1      -4.657   5.584 -24.542  0.00  0.00    +0.209 HD
ENDBRANCH  15  16
ENDBRANCH   6  15
BRANCH   8  18
ATOM     18  C   UNL     1       0.481   1.719 -21.580  0.00  0.00    +0.159 C 
BRANCH  18  19
ATOM     19  O   UNL     1       0.494   1.346 -20.334  0.00  0.00    -0.395 OA
ATOM     20  H   UNL     1       0.072   2.027 -19.788  0.00  0.00    +0.209 HD
ENDBRANCH  18  19
ENDBRANCH   8  18
BRANCH   7  21
ATOM     21  C   UNL     1       0.491   2.597 -24.026  0.00  0.00    +0.009 C 
BRANCH  21  22
ATOM     22  C   UNL     1       1.227   3.664 -24.122  0.00  0.00    +0.042 C 
BRANCH  22  23
ATOM     23  C   UNL     1       2.498   3.603 -23.855  0.00  0.00    +0.036 C 
ATOM     24  C   UNL     1       3.295   2.622 -24.154  0.00  0.00    +0.024 C 
ATOM     25  C   UNL     1       4.485   2.926 -23.726  0.00  0.00    +0.260 C 
ATOM     26  O   UNL     1       4.422   4.095 -23.162  0.00  0.00    -0.457 OA
ATOM     27  C   UNL     1       3.194   4.514 -23.242  0.00  0.00    +0.335 C 
ATOM     28  O   UNL     1       2.741   5.645 -22.787  0.00  0.00    -0.245 OA
ENDBRANCH  22  23
ENDBRANCH  21  22
ENDBRANCH   7  21
TORSDOF 9
ENDMDL
MODEL 3
REMARK VINA RESULT:    -9.502      1.604      6.388
REMARK INTER + INTRA:         -12.890
REMARK INTER:                 -13.140
REMARK INTRA:                   0.250
REMARK UNBOUND:                 0.223
REMARK  Name = ZINC000085340887
REMARK  10 active torsions:
REMARK  status: ('A' for Active; 'I' for Inactive)
REMARK    1  A    between atoms: C_1  and  C_2
REMARK    2  A    between atoms: C_6  and  C_7
REMARK    3  A    between atoms: C_6  and  C_9
REMARK    4  A    between atoms: C_7  and  O_8
REMARK    5  A    between atoms: C_9  and  O_10
REMARK    6  A    between atoms: C_14  and  C_15
REMARK    7  A    between atoms: C_15  and  O_16
REMARK    8  A    between atoms: C_17  and  C_18
REMARK    9  A    between atoms: C_18  and  C_19
REMARK   10  A    between atoms: C_19  and  C_20
REMARK                            x       y       z     vdW  Elec       q    Type
REMARK                         _______ _______ _______ _____ _____    ______ ____
ROOT
ATOM      1  C   UNL     1       0.002   1.962 -22.154  0.00  0.00    +0.012 C 
ATOM      2  C   UNL     1       1.168   2.325 -22.597  0.00  0.00    -0.025 C 
ATOM      3  C   UNL     1       1.077   1.634 -21.500  0.00  0.00    +0.007 C 
ATOM      4  C   UNL     1       2.150   1.305 -20.845  0.00  0.00    +0.001 C 
ATOM      5  C   UNL     1       3.318   1.669 -21.288  0.00  0.00    +0.012 C 
ATOM      6  C   UNL     1       3.410   2.359 -22.385  0.00  0.00    +0.020 C 
ATOM      7  C   UNL     1       0.095   2.653 -23.251  0.00  0.00    +0.001 C 
ATOM      8  C   UNL     1       0.188   3.344 -24.348  0.00  0.00    +0.018 C 
ATOM      9  C   UNL     1       1.355   3.708 -24.791  0.00  0.00    +0.006 C 
ATOM     10  C   UNL     1       2.429   3.379 -24.137  0.00  0.00    +0.005 C 
ATOM     11  C   UNL     1       2.336   2.688 -23.040  0.00  0.00    +0.006 C 
ENDROOT
BRANCH   6  12
ATOM     12  C   UNL     1       3.941   3.016 -23.375  0.00  0.00    +0.165 C 
BRANCH  12  13
ATOM     13  O   UNL     1       5.158   2.757 -23.748  0.00  0.00    -0.394 OA
ATOM     14  H   UNL     1       5.732   2.705 -22.968  0.00  0.00    +0.209 HD
ENDBRANCH  12  13
ENDBRANCH   6  12
BRANCH   6  15
ATOM     15  C   UNL     1       4.669   2.259 -22.074  0.00  0.00    +0.165 C 
BRANCH  15  16
ATOM     16  O   UNL     1       5.095   2.719 -20.935  0.00  0.00    -0.394 OA
ATOM     17  H   UNL     1       4.828   2.117 -20.223  0.00  0.00    +0.209 HD
ENDBRANCH  15  16
ENDBRANCH   6  15
BRANCH   8  18
ATOM     18  C   UNL     1      -0.886   3.672 -25.002  0.00  0.00    +0.159 C 
BRANCH  18  19
ATOM     19  O   UNL     1      -1.047   3.275 -26.230  0.00  0.00    -0.395 OA
ATOM     20  H   UNL     1      -1.870   3.646 -26.585  0.00  0.00    +0.209 HD
ENDBRANCH  18  19
ENDBRANCH   8  18
BRANCH   7  21
ATOM     21  C   UNL     1      -1.072   2.290 -22.808  0.00  0.00    +0.009 C 
BRANCH  21  22
ATOM     22  C   UNL     1      -1.602   2.905 -21.793  0.00  0.00    +0.042 C 
BRANCH  22  23
ATOM     23  C   UNL     1      -2.872   3.185 -21.793  0.00  0.00    +0.036 C 
ATOM     24  C   UNL     1      -3.670   3.113 -22.817  0.00  0.00    +0.024 C 
ATOM     25  C   UNL     1      -4.858   3.470 -22.426  0.00  0.00    +0.260 C 
ATOM     26  O   UNL     1      -4.793   3.761 -21.161  0.00  0.00    -0.457 OA
ATOM     27  C   UNL     1      -3.566   3.585 -20.770  0.00  0.00    +0.335 C 
ATOM     28  O   UNL     1      -3.112   3.776 -19.566  0.00  0.00    -0.245 OA
ENDBRANCH  22  23
ENDBRANCH  21  22
ENDBRANCH   7  21
TORSDOF 9
ENDMDL
MODEL 4
REMARK VINA RESULT:    -9.488      1.453      6.594
REMARK INTER + INTRA:         -12.871
REMARK INTER:                 -13.365
REMARK INTRA:                   0.494
REMARK UNBOUND:                 0.223
REMARK  Name = ZINC000085340887
REMARK  10 active torsions:
REMARK  status: ('A' for Active; 'I' for Inactive)
REMARK    1  A    between atoms: C_1  and  C_2
REMARK    2  A    between atoms: C_6  and  C_7
REMARK    3  A    between atoms: C_6  and  C_9
REMARK    4  A    between atoms: C_7  and  O_8
REMARK    5  A    between atoms: C_9  and  O_10
REMARK    6  A    between atoms: C_14  and  C_15
REMARK    7  A    between atoms: C_15  and  O_16
REMARK    8  A    between atoms: C_17  and  C_18
REMARK    9  A    between atoms: C_18  and  C_19
REMARK   10  A    between atoms: C_19  and  C_20
REMARK                            x       y       z     vdW  Elec       q    Type
REMARK                         _______ _______ _______ _____ _____    ______ ____
ROOT
ATOM      1  C   UNL     1      -0.371   3.779 -23.985  0.00  0.00    +0.012 C 
ATOM      2  C   UNL     1       0.380   2.888 -23.411  0.00  0.00    -0.025 C 
ATOM      3  C   UNL     1       0.762   3.437 -24.526  0.00  0.00    +0.007 C 
ATOM      4  C   UNL     1       1.893   3.095 -25.067  0.00  0.00    +0.001 C 
ATOM      5  C   UNL     1       2.644   2.202 -24.492  0.00  0.00    +0.012 C 
ATOM      6  C   UNL     1       2.263   1.653 -23.378  0.00  0.00    +0.020 C 
ATOM      7  C   UNL     1      -0.751   3.229 -22.871  0.00  0.00    +0.001 C 
ATOM      8  C   UNL     1      -1.131   2.680 -21.756  0.00  0.00    +0.018 C 
ATOM      9  C   UNL     1      -0.381   1.787 -21.181  0.00  0.00    +0.006 C 
ATOM     10  C   UNL     1       0.752   1.445 -21.722  0.00  0.00    +0.005 C 
ATOM     11  C   UNL     1       1.132   1.995 -22.837  0.00  0.00    +0.006 C 
ENDROOT
BRANCH   6  12
ATOM     12  C   UNL     1       2.278   0.892 -22.323  0.00  0.00    +0.165 C 
BRANCH  12  13
ATOM     13  O   UNL     1       3.191  -0.023 -22.195  0.00  0.00    -0.394 OA
ATOM     14  H   UNL     1       3.138  -0.641 -22.942  0.00  0.00    +0.209 HD
ENDBRANCH  12  13
ENDBRANCH   6  12
BRANCH   6  15
ATOM     15  C   UNL     1       3.400   1.047 -23.553  0.00  0.00    +0.165 C 
BRANCH  15  16
ATOM     16  O   UNL     1       3.756   0.663 -24.742  0.00  0.00    -0.394 OA
ATOM     17  H   UNL     1       4.679   0.915 -24.901  0.00  0.00    +0.209 HD
ENDBRANCH  15  16
ENDBRANCH   6  15
BRANCH   8  18
ATOM     18  C   UNL     1      -2.263   3.022 -21.216  0.00  0.00    +0.159 C 
BRANCH  18  19
ATOM     19  O   UNL     1      -3.238   2.165 -21.151  0.00  0.00    -0.395 OA
ATOM     20  H   UNL     1      -3.224   1.599 -21.939  0.00  0.00    +0.209 HD
ENDBRANCH  18  19
ENDBRANCH   8  18
BRANCH   7  21
ATOM     21  C   UNL     1      -1.502   4.122 -23.445  0.00  0.00    +0.009 C 
BRANCH  21  22
ATOM     22  C   UNL     1      -1.938   3.924 -24.653  0.00  0.00    +0.042 C 
BRANCH  22  23
ATOM     23  C   UNL     1      -3.215   3.829 -24.877  0.00  0.00    +0.036 C 
ATOM     24  C   UNL     1      -4.158   3.975 -23.994  0.00  0.00    +0.024 C 
ATOM     25  C   UNL     1      -5.299   3.808 -24.594  0.00  0.00    +0.260 C 
ATOM     26  O   UNL     1      -5.061   3.559 -25.847  0.00  0.00    -0.457 OA
ATOM     27  C   UNL     1      -3.773   3.572 -26.022  0.00  0.00    +0.335 C 
ATOM     28  O   UNL     1      -3.152   3.364 -27.145  0.00  0.00    -0.245 OA
ENDBRANCH  22  23
ENDBRANCH  21  22
ENDBRANCH   7  21
TORSDOF 9
ENDMDL
MODEL 5
REMARK VINA RESULT:    -9.089      1.485      3.402
REMARK INTER + INTRA:         -12.320
REMARK INTER:                 -12.686
REMARK INTRA:                   0.366
REMARK UNBOUND:                 0.223
REMARK  Name = ZINC000085340887
REMARK  10 active torsions:
REMARK  status: ('A' for Active; 'I' for Inactive)
REMARK    1  A    between atoms: C_1  and  C_2
REMARK    2  A    between atoms: C_6  and  C_7
REMARK    3  A    between atoms: C_6  and  C_9
REMARK    4  A    between atoms: C_7  and  O_8
REMARK    5  A    between atoms: C_9  and  O_10
REMARK    6  A    between atoms: C_14  and  C_15
REMARK    7  A    between atoms: C_15  and  O_16
REMARK    8  A    between atoms: C_17  and  C_18
REMARK    9  A    between atoms: C_18  and  C_19
REMARK   10  A    between atoms: C_19  and  C_20
REMARK                            x       y       z     vdW  Elec       q    Type
REMARK                         _______ _______ _______ _____ _____    ______ ____
ROOT
ATOM      1  C   UNL     1      -1.152   2.972 -22.920  0.00  0.00    +0.012 C 
ATOM      2  C   UNL     1      -2.295   3.230 -23.480  0.00  0.00    -0.025 C 
ATOM      3  C   UNL     1      -1.218   3.167 -24.205  0.00  0.00    +0.007 C 
ATOM      4  C   UNL     1      -1.283   3.363 -25.487  0.00  0.00    +0.001 C 
ATOM      5  C   UNL     1      -2.428   3.622 -26.048  0.00  0.00    +0.012 C 
ATOM      6  C   UNL     1      -3.505   3.685 -25.325  0.00  0.00    +0.020 C 
ATOM      7  C   UNL     1      -2.230   3.035 -22.197  0.00  0.00    +0.001 C 
ATOM      8  C   UNL     1      -3.308   3.098 -21.474  0.00  0.00    +0.018 C 
ATOM      9  C   UNL     1      -4.453   3.357 -22.034  0.00  0.00    +0.006 C 
ATOM     10  C   UNL     1      -4.518   3.553 -23.318  0.00  0.00    +0.005 C 
ATOM     11  C   UNL     1      -3.440   3.490 -24.041  0.00  0.00    +0.006 C 
ENDROOT
BRANCH   6  12
ATOM     12  C   UNL     1      -4.758   3.835 -25.009  0.00  0.00    +0.165 C 
BRANCH  12  13
ATOM     13  O   UNL     1      -5.530   4.575 -25.747  0.00  0.00    -0.394 OA
ATOM     14  H   UNL     1      -5.547   4.225 -26.652  0.00  0.00    +0.209 HD
ENDBRANCH  12  13
ENDBRANCH   6  12
BRANCH   6  15
ATOM     15  C   UNL     1      -4.006   3.933 -26.499  0.00  0.00    +0.165 C 
BRANCH  15  16
ATOM     16  O   UNL     1      -4.072   2.989 -27.389  0.00  0.00    -0.394 OA
ATOM     17  H   UNL     1      -3.305   2.402 -27.296  0.00  0.00    +0.209 HD
ENDBRANCH  15  16
ENDBRANCH   6  15
BRANCH   8  18
ATOM     18  C   UNL     1      -3.242   2.902 -20.191  0.00  0.00    +0.159 C 
BRANCH  18  19
ATOM     19  O   UNL     1      -3.248   3.917 -19.377  0.00  0.00    -0.395 OA
ATOM     20  H   UNL     1      -2.359   4.302 -19.336  0.00  0.00    +0.209 HD
ENDBRANCH  18  19
ENDBRANCH   8  18
BRANCH   7  21
ATOM     21  C   UNL     1      -1.086   2.776 -21.637  0.00  0.00    +0.009 C 
BRANCH  21  22
ATOM     22  C   UNL     1      -0.463   1.669 -21.913  0.00  0.00    +0.042 C 
BRANCH  22  23
ATOM     23  C   UNL     1       0.792   1.535 -21.602  0.00  0.00    +0.036 C 
ATOM     24  C   UNL     1       1.290   1.567 -20.402  0.00  0.00    +0.024 C 
ATOM     25  C   UNL     1       2.575   1.397 -20.495  0.00  0.00    +0.260 C 
ATOM     26  O   UNL     1       2.872   1.259 -21.753  0.00  0.00    -0.457 OA
ATOM     27  C   UNL     1       1.770   1.344 -22.437  0.00  0.00    +0.335 C 
ATOM     28  O   UNL     1       1.664   1.254 -23.730  0.00  0.00    -0.245 OA
ENDBRANCH  22  23
ENDBRANCH  21  22
ENDBRANCH   7  21
TORSDOF 9
ENDMDL
MODEL 6
REMARK VINA RESULT:    -8.301      3.502      7.299
REMARK INTER + INTRA:         -11.232
REMARK INTER:                 -11.479
REMARK INTRA:                   0.247
REMARK UNBOUND:                 0.223
REMARK  Name = ZINC000085340887
REMARK  10 active torsions:
REMARK  status: ('A' for Active; 'I' for Inactive)
REMARK    1  A    between atoms: C_1  and  C_2
REMARK    2  A    between atoms: C_6  and  C_7
REMARK    3  A    between atoms: C_6  and  C_9
REMARK    4  A    between atoms: C_7  and  O_8
REMARK    5  A    between atoms: C_9  and  O_10
REMARK    6  A    between atoms: C_14  and  C_15
REMARK    7  A    between atoms: C_15  and  O_16
REMARK    8  A    between atoms: C_17  and  C_18
REMARK    9  A    between atoms: C_18  and  C_19
REMARK   10  A    between atoms: C_19  and  C_20
REMARK                            x       y       z     vdW  Elec       q    Type
REMARK                         _______ _______ _______ _____ _____    ______ ____
ROOT
ATOM      1  C   UNL     1       2.077   5.085 -23.527  0.00  0.00    +0.012 C 
ATOM      2  C   UNL     1       3.312   4.715 -23.367  0.00  0.00    -0.025 C 
ATOM      3  C   UNL     1       2.927   5.885 -22.953  0.00  0.00    +0.007 C 
ATOM      4  C   UNL     1       3.775   6.685 -22.379  0.00  0.00    +0.001 C 
ATOM      5  C   UNL     1       5.012   6.314 -22.219  0.00  0.00    +0.012 C 
ATOM      6  C   UNL     1       5.397   5.144 -22.633  0.00  0.00    +0.020 C 
ATOM      7  C   UNL     1       2.463   3.915 -23.941  0.00  0.00    +0.001 C 
ATOM      8  C   UNL     1       2.849   2.746 -24.354  0.00  0.00    +0.018 C 
ATOM      9  C   UNL     1       4.085   2.374 -24.195  0.00  0.00    +0.006 C 
ATOM     10  C   UNL     1       4.934   3.174 -23.621  0.00  0.00    +0.005 C 
ATOM     11  C   UNL     1       4.548   4.344 -23.207  0.00  0.00    +0.006 C 
ENDROOT
BRANCH   6  12
ATOM     12  C   UNL     1       6.172   4.128 -22.877  0.00  0.00    +0.165 C 
BRANCH  12  13
ATOM     13  O   UNL     1       7.238   3.938 -22.159  0.00  0.00    -0.394 OA
ATOM     14  H   UNL     1       7.810   4.720 -22.213  0.00  0.00    +0.209 HD
ENDBRANCH  12  13
ENDBRANCH   6  12
BRANCH   6  15
ATOM     15  C   UNL     1       6.516   5.591 -22.143  0.00  0.00    +0.165 C 
BRANCH  15  16
ATOM     16  O   UNL     1       7.123   6.587 -22.716  0.00  0.00    -0.394 OA
ATOM     17  H   UNL     1       6.983   6.543 -23.675  0.00  0.00    +0.209 HD
ENDBRANCH  15  16
ENDBRANCH   6  15
BRANCH   8  18
ATOM     18  C   UNL     1       2.000   1.946 -24.928  0.00  0.00    +0.159 C 
BRANCH  18  19
ATOM     19  O   UNL     1       2.013   1.803 -26.221  0.00  0.00    -0.395 OA
ATOM     20  H   UNL     1       1.373   1.120 -26.477  0.00  0.00    +0.209 HD
ENDBRANCH  18  19
ENDBRANCH   8  18
BRANCH   7  21
ATOM     21  C   UNL     1       1.227   4.286 -24.101  0.00  0.00    +0.009 C 
BRANCH  21  22
ATOM     22  C   UNL     1       0.378   4.155 -23.126  0.00  0.00    +0.042 C 
BRANCH  22  23
ATOM     23  C   UNL     1      -0.851   3.810 -23.376  0.00  0.00    +0.036 C 
ATOM     24  C   UNL     1      -1.798   4.602 -23.781  0.00  0.00    +0.024 C 
ATOM     25  C   UNL     1      -2.880   3.895 -23.921  0.00  0.00    +0.260 C 
ATOM     26  O   UNL     1      -2.601   2.667 -23.602  0.00  0.00    -0.457 OA
ATOM     27  C   UNL     1      -1.347   2.614 -23.265  0.00  0.00    +0.335 C 
ATOM     28  O   UNL     1      -0.701   1.551 -22.885  0.00  0.00    -0.245 OA
ENDBRANCH  22  23
ENDBRANCH  21  22
ENDBRANCH   7  21
TORSDOF 9
ENDMDL
MODEL 7
REMARK VINA RESULT:    -7.413      1.891      3.372
REMARK INTER + INTRA:         -10.007
REMARK INTER:                 -11.091
REMARK INTRA:                   1.083
REMARK UNBOUND:                 0.223
REMARK  Name = ZINC000085340887
REMARK  10 active torsions:
REMARK  status: ('A' for Active; 'I' for Inactive)
REMARK    1  A    between atoms: C_1  and  C_2
REMARK    2  A    between atoms: C_6  and  C_7
REMARK    3  A    between atoms: C_6  and  C_9
REMARK    4  A    between atoms: C_7  and  O_8
REMARK    5  A    between atoms: C_9  and  O_10
REMARK    6  A    between atoms: C_14  and  C_15
REMARK    7  A    between atoms: C_15  and  O_16
REMARK    8  A    between atoms: C_17  and  C_18
REMARK    9  A    between atoms: C_18  and  C_19
REMARK   10  A    between atoms: C_19  and  C_20
REMARK                            x       y       z     vdW  Elec       q    Type
REMARK                         _______ _______ _______ _____ _____    ______ ____
ROOT
ATOM      1  C   UNL     1       1.081   3.731 -23.238  0.00  0.00    +0.012 C 
ATOM      2  C   UNL     1      -0.095   3.298 -22.897  0.00  0.00    -0.025 C 
ATOM      3  C   UNL     1       0.020   4.201 -23.825  0.00  0.00    +0.007 C 
ATOM      4  C   UNL     1      -1.040   4.671 -24.412  0.00  0.00    +0.001 C 
ATOM      5  C   UNL     1      -2.218   4.238 -24.071  0.00  0.00    +0.012 C 
ATOM      6  C   UNL     1      -2.334   3.335 -23.143  0.00  0.00    +0.020 C 
ATOM      7  C   UNL     1       0.964   2.828 -22.311  0.00  0.00    +0.001 C 
ATOM      8  C   UNL     1       0.848   1.925 -21.383  0.00  0.00    +0.018 C 
ATOM      9  C   UNL     1      -0.329   1.491 -21.042  0.00  0.00    +0.006 C 
ATOM     10  C   UNL     1      -1.390   1.961 -21.629  0.00  0.00    +0.005 C 
ATOM     11  C   UNL     1      -1.274   2.864 -22.556  0.00  0.00    +0.006 C 
ENDROOT
BRANCH   6  12
ATOM     12  C   UNL     1      -2.886   2.493 -22.320  0.00  0.00    +0.165 C 
BRANCH  12  13
ATOM     13  O   UNL     1      -4.133   2.634 -21.986  0.00  0.00    -0.394 OA
ATOM     14  H   UNL     1      -4.219   2.579 -21.021  0.00  0.00    +0.209 HD
ENDBRANCH  12  13
ENDBRANCH   6  12
BRANCH   6  15
ATOM     15  C   UNL     1      -3.587   3.512 -23.444  0.00  0.00    +0.165 C 
BRANCH  15  16
ATOM     16  O   UNL     1      -3.981   3.397 -24.677  0.00  0.00    -0.394 OA
ATOM     17  H   UNL     1      -4.317   4.252 -24.991  0.00  0.00    +0.209 HD
ENDBRANCH  15  16
ENDBRANCH   6  15
BRANCH   8  18
ATOM     18  C   UNL     1       1.908   1.456 -20.797  0.00  0.00    +0.159 C 
BRANCH  18  19
ATOM     19  O   UNL     1       1.897   1.228 -19.516  0.00  0.00    -0.395 OA
ATOM     20  H   UNL     1       2.010   0.278 -19.356  0.00  0.00    +0.209 HD
ENDBRANCH  18  19
ENDBRANCH   8  18
BRANCH   7  21
ATOM     21  C   UNL     1       2.142   3.262 -22.651  0.00  0.00    +0.009 C 
BRANCH  21  22
ATOM     22  C   UNL     1       2.887   2.559 -23.452  0.00  0.00    +0.042 C 
BRANCH  22  23
ATOM     23  C   UNL     1       4.109   2.271 -23.117  0.00  0.00    +0.036 C 
ATOM     24  C   UNL     1       4.544   1.107 -22.737  0.00  0.00    +0.024 C 
ATOM     25  C   UNL     1       5.816   1.214 -22.488  0.00  0.00    +0.260 C 
ATOM     26  O   UNL     1       6.167   2.444 -22.715  0.00  0.00    -0.457 OA
ATOM     27  C   UNL     1       5.112   3.098 -23.103  0.00  0.00    +0.335 C 
ATOM     28  O   UNL     1       5.069   4.358 -23.423  0.00  0.00    -0.245 OA
ENDBRANCH  22  23
ENDBRANCH  21  22
ENDBRANCH   7  21
TORSDOF 9
ENDMDL
MODEL 8
REMARK VINA RESULT:    -7.335      2.154      2.757
REMARK INTER + INTRA:          -9.898
REMARK INTER:                 -10.637
REMARK INTRA:                   0.739
REMARK UNBOUND:                 0.223
REMARK  Name = ZINC000085340887
REMARK  10 active torsions:
REMARK  status: ('A' for Active; 'I' for Inactive)
REMARK    1  A    between atoms: C_1  and  C_2
REMARK    2  A    between atoms: C_6  and  C_7
REMARK    3  A    between atoms: C_6  and  C_9
REMARK    4  A    between atoms: C_7  and  O_8
REMARK    5  A    between atoms: C_9  and  O_10
REMARK    6  A    between atoms: C_14  and  C_15
REMARK    7  A    between atoms: C_15  and  O_16
REMARK    8  A    between atoms: C_17  and  C_18
REMARK    9  A    between atoms: C_18  and  C_19
REMARK   10  A    between atoms: C_19  and  C_20
REMARK                            x       y       z     vdW  Elec       q    Type
REMARK                         _______ _______ _______ _____ _____    ______ ____
ROOT
ATOM      1  C   UNL     1       1.305   2.389 -22.065  0.00  0.00    +0.012 C 
ATOM      2  C   UNL     1       0.163   2.922 -22.379  0.00  0.00    -0.025 C 
ATOM      3  C   UNL     1       0.197   1.772 -21.775  0.00  0.00    +0.007 C 
ATOM      4  C   UNL     1      -0.909   1.155 -21.485  0.00  0.00    +0.001 C 
ATOM      5  C   UNL     1      -2.053   1.690 -21.800  0.00  0.00    +0.012 C 
ATOM      6  C   UNL     1      -2.088   2.840 -22.404  0.00  0.00    +0.020 C 
ATOM      7  C   UNL     1       1.269   3.539 -22.669  0.00  0.00    +0.001 C 
ATOM      8  C   UNL     1       1.234   4.689 -23.273  0.00  0.00    +0.018 C 
ATOM      9  C   UNL     1       0.092   5.224 -23.589  0.00  0.00    +0.006 C 
ATOM     10  C   UNL     1      -1.016   4.607 -23.299  0.00  0.00    +0.005 C 
ATOM     11  C   UNL     1      -0.981   3.457 -22.694  0.00  0.00    +0.006 C 
ENDROOT
BRANCH   6  12
ATOM     12  C   UNL     1      -2.566   3.905 -22.977  0.00  0.00    +0.165 C 
BRANCH  12  13
ATOM     13  O   UNL     1      -3.721   3.861 -23.570  0.00  0.00    -0.394 OA
ATOM     14  H   UNL     1      -3.911   4.722 -23.976  0.00  0.00    +0.209 HD
ENDBRANCH  12  13
ENDBRANCH   6  12
BRANCH   6  15
ATOM     15  C   UNL     1      -3.361   2.593 -22.313  0.00  0.00    +0.165 C 
BRANCH  15  16
ATOM     16  O   UNL     1      -3.952   2.644 -21.157  0.00  0.00    -0.394 OA
ATOM     17  H   UNL     1      -4.050   1.745 -20.804  0.00  0.00    +0.209 HD
ENDBRANCH  15  16
ENDBRANCH   6  15
BRANCH   8  18
ATOM     18  C   UNL     1       2.341   5.305 -23.563  0.00  0.00    +0.159 C 
BRANCH  18  19
ATOM     19  O   UNL     1       2.693   6.361 -22.890  0.00  0.00    -0.395 OA
ATOM     20  H   UNL     1       3.512   6.723 -23.262  0.00  0.00    +0.209 HD
ENDBRANCH  18  19
ENDBRANCH   8  18
BRANCH   7  21
ATOM     21  C   UNL     1       2.412   3.005 -22.355  0.00  0.00    +0.009 C 
BRANCH  21  22
ATOM     22  C   UNL     1       3.184   2.527 -23.284  0.00  0.00    +0.042 C 
BRANCH  22  23
ATOM     23  C   UNL     1       4.471   2.483 -23.103  0.00  0.00    +0.036 C 
ATOM     24  C   UNL     1       5.336   3.341 -23.554  0.00  0.00    +0.024 C 
ATOM     25  C   UNL     1       6.518   2.961 -23.168  0.00  0.00    +0.260 C 
ATOM     26  O   UNL     1       6.383   1.869 -22.478  0.00  0.00    -0.457 OA
ATOM     27  C   UNL     1       5.118   1.572 -22.437  0.00  0.00    +0.335 C 
ATOM     28  O   UNL     1       4.591   0.546 -21.837  0.00  0.00    -0.245 OA
ENDBRANCH  22  23
ENDBRANCH  21  22
ENDBRANCH   7  21
TORSDOF 9
ENDMDL
