MODEL 1
REMARK VINA RESULT:    -8.627      0.000      0.000
REMARK INTER + INTRA:         -10.328
REMARK INTER:                 -10.057
REMARK INTRA:                  -0.271
REMARK UNBOUND:                -0.187
REMARK  Name = ZINC000014650529
REMARK  5 active torsions:
REMARK  status: ('A' for Active; 'I' for Inactive)
REMARK    1  A    between atoms: C_2  and  C_3
REMARK    2  A    between atoms: C_2  and  C_4
REMARK    3  A    between atoms: C_6  and  C_7
REMARK    4  A    between atoms: C_8  and  O_9
REMARK    5  A    between atoms: O_9  and  C_10
REMARK                            x       y       z     vdW  Elec       q    Type
REMARK                         _______ _______ _______ _____ _____    ______ ____
ROOT
ATOM      1  C   UNL     1      -0.421   2.787 -23.314  0.00  0.00    +0.068 A 
ATOM      2  C   UNL     1      -1.051   3.202 -24.373  0.00  0.00    +0.129 A 
ATOM      3  C   UNL     1      -0.387   3.728 -25.360  0.00  0.00    +0.047 A 
ATOM      4  C   UNL     1       0.906   3.839 -25.287  0.00  0.00    +0.015 A 
ATOM      5  C   UNL     1       1.535   3.424 -24.228  0.00  0.00    +0.018 A 
ATOM      6  C   UNL     1       2.828   3.536 -24.156  0.00  0.00    +0.018 A 
ATOM      7  C   UNL     1       3.458   3.121 -23.096  0.00  0.00    +0.092 A 
ATOM      8  C   UNL     1       2.794   2.595 -22.110  0.00  0.00    +0.337 A 
ATOM      9  O   UNL     1       1.501   2.484 -22.183  0.00  0.00    -0.422 OA
ATOM     10  O   UNL     1       3.424   2.180 -21.051  0.00  0.00    -0.245 OA
ATOM     11  C   UNL     1       0.871   2.899 -23.242  0.00  0.00    +0.148 A 
ENDROOT
BRANCH   1  14
ATOM     12  C   UNL     1      -2.069   2.311 -21.479  0.00  0.00    +0.178 C 
ATOM     13  O   UNL     1      -1.251   1.301 -21.467  0.00  0.00    -0.358 OA
ATOM     14  C   UNL     1      -1.085   2.262 -22.328  0.00  0.00    +0.189 C 
BRANCH  12  16
ATOM     15  C   UNL     1      -4.294   2.661 -21.466  0.00  0.00    +0.010 C 
ATOM     16  C   UNL     1      -3.109   2.922 -20.996  0.00  0.00    -0.049 C 
ATOM     17  C   UNL     1      -2.966   3.795 -20.043  0.00  0.00    +0.041 C 
ENDBRANCH  12  16
ENDBRANCH   1  14
BRANCH   2  18
ATOM     18  O   UNL     1      -2.345   3.091 -24.445  0.00  0.00    -0.495 OA
ATOM     19  C   UNL     1      -3.065   4.108 -24.814  0.00  0.00    +0.277 C 
ENDBRANCH   2  18
TORSDOF 3
ENDMDL
MODEL 2
REMARK VINA RESULT:    -8.167      1.615      5.941
REMARK INTER + INTRA:          -9.786
REMARK INTER:                  -9.897
REMARK INTRA:                   0.111
REMARK UNBOUND:                -0.187
REMARK  Name = ZINC000014650529
REMARK  5 active torsions:
REMARK  status: ('A' for Active; 'I' for Inactive)
REMARK    1  A    between atoms: C_2  and  C_3
REMARK    2  A    between atoms: C_2  and  C_4
REMARK    3  A    between atoms: C_6  and  C_7
REMARK    4  A    between atoms: C_8  and  O_9
REMARK    5  A    between atoms: O_9  and  C_10
REMARK                            x       y       z     vdW  Elec       q    Type
REMARK                         _______ _______ _______ _____ _____    ______ ____
ROOT
ATOM      1  C   UNL     1      -1.712   3.195 -23.041  0.00  0.00    +0.068 A 
ATOM      2  C   UNL     1      -1.289   2.637 -21.946  0.00  0.00    +0.129 A 
ATOM      3  C   UNL     1      -2.134   2.306 -21.016  0.00  0.00    +0.047 A 
ATOM      4  C   UNL     1      -3.404   2.532 -21.181  0.00  0.00    +0.015 A 
ATOM      5  C   UNL     1      -3.827   3.090 -22.276  0.00  0.00    +0.018 A 
ATOM      6  C   UNL     1      -5.096   3.316 -22.441  0.00  0.00    +0.018 A 
ATOM      7  C   UNL     1      -5.520   3.875 -23.536  0.00  0.00    +0.092 A 
ATOM      8  C   UNL     1      -4.675   4.207 -24.466  0.00  0.00    +0.337 A 
ATOM      9  O   UNL     1      -3.405   3.980 -24.300  0.00  0.00    -0.422 OA
ATOM     10  O   UNL     1      -5.098   4.765 -25.561  0.00  0.00    -0.245 OA
ATOM     11  C   UNL     1      -2.981   3.422 -23.206  0.00  0.00    +0.148 A 
ENDROOT
BRANCH   1  14
ATOM     12  C   UNL     1       0.339   3.853 -24.333  0.00  0.00    +0.178 C 
ATOM     13  O   UNL     1      -0.607   3.776 -25.221  0.00  0.00    -0.358 OA
ATOM     14  C   UNL     1      -0.867   3.527 -23.971  0.00  0.00    +0.189 C 
BRANCH  12  16
ATOM     15  C   UNL     1       2.488   3.183 -24.263  0.00  0.00    +0.010 C 
ATOM     16  C   UNL     1       1.582   4.085 -24.029  0.00  0.00    -0.049 C 
ATOM     17  C   UNL     1       1.918   5.220 -23.491  0.00  0.00    +0.041 C 
ENDBRANCH  12  16
ENDBRANCH   1  14
BRANCH   2  18
ATOM     18  O   UNL     1      -0.018   2.411 -21.781  0.00  0.00    -0.495 OA
ATOM     19  C   UNL     1       0.374   1.429 -21.025  0.00  0.00    +0.277 C 
ENDBRANCH   2  18
TORSDOF 3
ENDMDL
MODEL 3
REMARK VINA RESULT:    -8.154      1.873      3.545
REMARK INTER + INTRA:          -9.771
REMARK INTER:                  -9.530
REMARK INTRA:                  -0.241
REMARK UNBOUND:                -0.187
REMARK  Name = ZINC000014650529
REMARK  5 active torsions:
REMARK  status: ('A' for Active; 'I' for Inactive)
REMARK    1  A    between atoms: C_2  and  C_3
REMARK    2  A    between atoms: C_2  and  C_4
REMARK    3  A    between atoms: C_6  and  C_7
REMARK    4  A    between atoms: C_8  and  O_9
REMARK    5  A    between atoms: O_9  and  C_10
REMARK                            x       y       z     vdW  Elec       q    Type
REMARK                         _______ _______ _______ _____ _____    ______ ____
ROOT
ATOM      1  C   UNL     1      -1.336   3.087 -22.837  0.00  0.00    +0.068 A 
ATOM      2  C   UNL     1      -1.761   2.663 -21.684  0.00  0.00    +0.129 A 
ATOM      3  C   UNL     1      -1.018   1.872 -20.968  0.00  0.00    +0.047 A 
ATOM      4  C   UNL     1       0.149   1.504 -21.405  0.00  0.00    +0.015 A 
ATOM      5  C   UNL     1       0.574   1.928 -22.558  0.00  0.00    +0.018 A 
ATOM      6  C   UNL     1       1.742   1.560 -22.995  0.00  0.00    +0.018 A 
ATOM      7  C   UNL     1       2.167   1.984 -24.149  0.00  0.00    +0.092 A 
ATOM      8  C   UNL     1       1.425   2.775 -24.865  0.00  0.00    +0.337 A 
ATOM      9  O   UNL     1       0.257   3.143 -24.427  0.00  0.00    -0.422 OA
ATOM     10  O   UNL     1       1.850   3.199 -26.018  0.00  0.00    -0.245 OA
ATOM     11  C   UNL     1      -0.168   2.719 -23.274  0.00  0.00    +0.148 A 
ENDROOT
BRANCH   1  14
ATOM     12  C   UNL     1      -3.202   4.125 -24.160  0.00  0.00    +0.178 C 
ATOM     13  O   UNL     1      -2.242   5.002 -24.187  0.00  0.00    -0.358 OA
ATOM     14  C   UNL     1      -2.078   3.878 -23.553  0.00  0.00    +0.189 C 
BRANCH  12  16
ATOM     15  C   UNL     1      -4.650   3.368 -25.709  0.00  0.00    +0.010 C 
ATOM     16  C   UNL     1      -4.404   3.763 -24.495  0.00  0.00    -0.049 C 
ATOM     17  C   UNL     1      -5.361   3.794 -23.616  0.00  0.00    +0.041 C 
ENDBRANCH  12  16
ENDBRANCH   1  14
BRANCH   2  18
ATOM     18  O   UNL     1      -2.930   3.031 -21.247  0.00  0.00    -0.495 OA
ATOM     19  C   UNL     1      -3.024   3.731 -20.156  0.00  0.00    +0.277 C 
ENDBRANCH   2  18
TORSDOF 3
ENDMDL
MODEL 4
REMARK VINA RESULT:    -8.139      1.827      5.676
REMARK INTER + INTRA:          -9.754
REMARK INTER:                  -9.415
REMARK INTRA:                  -0.339
REMARK UNBOUND:                -0.187
REMARK  Name = ZINC000014650529
REMARK  5 active torsions:
REMARK  status: ('A' for Active; 'I' for Inactive)
REMARK    1  A    between atoms: C_2  and  C_3
REMARK    2  A    between atoms: C_2  and  C_4
REMARK    3  A    between atoms: C_6  and  C_7
REMARK    4  A    between atoms: C_8  and  O_9
REMARK    5  A    between atoms: O_9  and  C_10
REMARK                            x       y       z     vdW  Elec       q    Type
REMARK                         _______ _______ _______ _____ _____    ______ ____
ROOT
ATOM      1  C   UNL     1      -2.638   3.076 -23.143  0.00  0.00    +0.068 A 
ATOM      2  C   UNL     1      -3.200   3.145 -21.973  0.00  0.00    +0.129 A 
ATOM      3  C   UNL     1      -4.469   3.411 -21.876  0.00  0.00    +0.047 A 
ATOM      4  C   UNL     1      -5.176   3.607 -22.949  0.00  0.00    +0.015 A 
ATOM      5  C   UNL     1      -4.614   3.538 -24.119  0.00  0.00    +0.018 A 
ATOM      6  C   UNL     1      -5.320   3.734 -25.192  0.00  0.00    +0.018 A 
ATOM      7  C   UNL     1      -4.758   3.665 -26.362  0.00  0.00    +0.092 A 
ATOM      8  C   UNL     1      -3.489   3.399 -26.459  0.00  0.00    +0.337 A 
ATOM      9  O   UNL     1      -2.783   3.203 -25.386  0.00  0.00    -0.422 OA
ATOM     10  O   UNL     1      -2.927   3.330 -27.629  0.00  0.00    -0.245 OA
ATOM     11  C   UNL     1      -3.345   3.272 -24.216  0.00  0.00    +0.148 A 
ENDROOT
BRANCH   1  14
ATOM     12  C   UNL     1      -0.166   3.167 -23.582  0.00  0.00    +0.178 C 
ATOM     13  O   UNL     1      -0.373   1.993 -23.066  0.00  0.00    -0.358 OA
ATOM     14  C   UNL     1      -1.369   2.810 -23.240  0.00  0.00    +0.189 C 
BRANCH  12  16
ATOM     15  C   UNL     1       0.913   4.049 -25.351  0.00  0.00    +0.010 C 
ATOM     16  C   UNL     1       0.647   4.052 -24.078  0.00  0.00    -0.049 C 
ATOM     17  C   UNL     1       1.194   4.939 -23.302  0.00  0.00    +0.041 C 
ENDBRANCH  12  16
ENDBRANCH   1  14
BRANCH   2  18
ATOM     18  O   UNL     1      -2.492   2.949 -20.899  0.00  0.00    -0.495 OA
ATOM     19  C   UNL     1      -2.657   3.716 -19.863  0.00  0.00    +0.277 C 
ENDBRANCH   2  18
TORSDOF 3
ENDMDL
MODEL 5
REMARK VINA RESULT:    -8.056      1.623      4.936
REMARK INTER + INTRA:          -9.656
REMARK INTER:                  -9.884
REMARK INTRA:                   0.228
REMARK UNBOUND:                -0.187
REMARK  Name = ZINC000014650529
REMARK  5 active torsions:
REMARK  status: ('A' for Active; 'I' for Inactive)
REMARK    1  A    between atoms: C_2  and  C_3
REMARK    2  A    between atoms: C_2  and  C_4
REMARK    3  A    between atoms: C_6  and  C_7
REMARK    4  A    between atoms: C_8  and  O_9
REMARK    5  A    between atoms: O_9  and  C_10
REMARK                            x       y       z     vdW  Elec       q    Type
REMARK                         _______ _______ _______ _____ _____    ______ ____
ROOT
ATOM      1  C   UNL     1      -1.087   2.537 -23.229  0.00  0.00    +0.068 A 
ATOM      2  C   UNL     1      -0.625   2.972 -24.363  0.00  0.00    +0.129 A 
ATOM      3  C   UNL     1      -1.397   3.641 -25.166  0.00  0.00    +0.047 A 
ATOM      4  C   UNL     1      -2.632   3.875 -24.835  0.00  0.00    +0.015 A 
ATOM      5  C   UNL     1      -3.094   3.440 -23.701  0.00  0.00    +0.018 A 
ATOM      6  C   UNL     1      -4.329   3.674 -23.370  0.00  0.00    +0.018 A 
ATOM      7  C   UNL     1      -4.792   3.239 -22.235  0.00  0.00    +0.092 A 
ATOM      8  C   UNL     1      -4.019   2.570 -21.432  0.00  0.00    +0.337 A 
ATOM      9  O   UNL     1      -2.784   2.336 -21.764  0.00  0.00    -0.422 OA
ATOM     10  O   UNL     1      -4.482   2.135 -20.298  0.00  0.00    -0.245 OA
ATOM     11  C   UNL     1      -2.322   2.771 -22.898  0.00  0.00    +0.148 A 
ENDROOT
BRANCH   1  14
ATOM     12  C   UNL     1       0.876   1.488 -22.064  0.00  0.00    +0.178 C 
ATOM     13  O   UNL     1      -0.165   1.090 -21.394  0.00  0.00    -0.358 OA
ATOM     14  C   UNL     1      -0.314   1.868 -22.425  0.00  0.00    +0.189 C 
BRANCH  12  16
ATOM     15  C   UNL     1       2.789   0.393 -22.526  0.00  0.00    +0.010 C 
ATOM     16  C   UNL     1       2.163   1.497 -22.242  0.00  0.00    -0.049 C 
ATOM     17  C   UNL     1       2.826   2.611 -22.137  0.00  0.00    +0.041 C 
ENDBRANCH  12  16
ENDBRANCH   1  14
BRANCH   2  18
ATOM     18  O   UNL     1       0.612   2.738 -24.694  0.00  0.00    -0.495 OA
ATOM     19  C   UNL     1       1.265   3.600 -25.414  0.00  0.00    +0.277 C 
ENDBRANCH   2  18
TORSDOF 3
ENDMDL
MODEL 6
REMARK VINA RESULT:    -7.876      1.981      4.280
REMARK INTER + INTRA:          -9.444
REMARK INTER:                  -8.981
REMARK INTRA:                  -0.464
REMARK UNBOUND:                -0.187
REMARK  Name = ZINC000014650529
REMARK  5 active torsions:
REMARK  status: ('A' for Active; 'I' for Inactive)
REMARK    1  A    between atoms: C_2  and  C_3
REMARK    2  A    between atoms: C_2  and  C_4
REMARK    3  A    between atoms: C_6  and  C_7
REMARK    4  A    between atoms: C_8  and  O_9
REMARK    5  A    between atoms: O_9  and  C_10
REMARK                            x       y       z     vdW  Elec       q    Type
REMARK                         _______ _______ _______ _____ _____    ______ ____
ROOT
ATOM      1  C   UNL     1      -2.645   3.389 -22.931  0.00  0.00    +0.068 A 
ATOM      2  C   UNL     1      -3.616   3.276 -22.075  0.00  0.00    +0.129 A 
ATOM      3  C   UNL     1      -3.437   2.610 -20.973  0.00  0.00    +0.047 A 
ATOM      4  C   UNL     1      -2.287   2.058 -20.726  0.00  0.00    +0.015 A 
ATOM      5  C   UNL     1      -1.315   2.172 -21.582  0.00  0.00    +0.018 A 
ATOM      6  C   UNL     1      -0.165   1.620 -21.336  0.00  0.00    +0.018 A 
ATOM      7  C   UNL     1       0.808   1.733 -22.192  0.00  0.00    +0.092 A 
ATOM      8  C   UNL     1       0.629   2.399 -23.294  0.00  0.00    +0.337 A 
ATOM      9  O   UNL     1      -0.522   2.951 -23.540  0.00  0.00    -0.422 OA
ATOM     10  O   UNL     1       1.601   2.512 -24.150  0.00  0.00    -0.245 OA
ATOM     11  C   UNL     1      -1.494   2.837 -22.684  0.00  0.00    +0.148 A 
ENDROOT
BRANCH   1  14
ATOM     12  C   UNL     1      -3.252   4.109 -25.260  0.00  0.00    +0.178 C 
ATOM     13  O   UNL     1      -2.704   5.155 -24.717  0.00  0.00    -0.358 OA
ATOM     14  C   UNL     1      -2.823   4.055 -24.033  0.00  0.00    +0.189 C 
BRANCH  12  16
ATOM     15  C   UNL     1      -4.990   2.989 -26.154  0.00  0.00    +0.010 C 
ATOM     16  C   UNL     1      -3.817   3.536 -26.281  0.00  0.00    -0.049 C 
ATOM     17  C   UNL     1      -3.208   3.509 -27.429  0.00  0.00    +0.041 C 
ENDBRANCH  12  16
ENDBRANCH   1  14
BRANCH   2  18
ATOM     18  O   UNL     1      -4.768   3.829 -22.322  0.00  0.00    -0.495 OA
ATOM     19  C   UNL     1      -5.864   3.158 -22.131  0.00  0.00    +0.277 C 
ENDBRANCH   2  18
TORSDOF 3
ENDMDL
MODEL 7
REMARK VINA RESULT:    -7.641      1.106      4.274
REMARK INTER + INTRA:          -9.168
REMARK INTER:                  -9.035
REMARK INTRA:                  -0.133
REMARK UNBOUND:                -0.187
REMARK  Name = ZINC000014650529
REMARK  5 active torsions:
REMARK  status: ('A' for Active; 'I' for Inactive)
REMARK    1  A    between atoms: C_2  and  C_3
REMARK    2  A    between atoms: C_2  and  C_4
REMARK    3  A    between atoms: C_6  and  C_7
REMARK    4  A    between atoms: C_8  and  O_9
REMARK    5  A    between atoms: O_9  and  C_10
REMARK                            x       y       z     vdW  Elec       q    Type
REMARK                         _______ _______ _______ _____ _____    ______ ____
ROOT
ATOM      1  C   UNL     1      -1.072   2.651 -23.401  0.00  0.00    +0.068 A 
ATOM      2  C   UNL     1       0.222   2.683 -23.526  0.00  0.00    +0.129 A 
ATOM      3  C   UNL     1       0.758   3.088 -24.639  0.00  0.00    +0.047 A 
ATOM      4  C   UNL     1       0.000   3.461 -25.627  0.00  0.00    +0.015 A 
ATOM      5  C   UNL     1      -1.293   3.429 -25.502  0.00  0.00    +0.018 A 
ATOM      6  C   UNL     1      -2.051   3.802 -26.490  0.00  0.00    +0.018 A 
ATOM      7  C   UNL     1      -3.345   3.770 -26.365  0.00  0.00    +0.092 A 
ATOM      8  C   UNL     1      -3.881   3.365 -25.252  0.00  0.00    +0.337 A 
ATOM      9  O   UNL     1      -3.122   2.991 -24.264  0.00  0.00    -0.422 OA
ATOM     10  O   UNL     1      -5.174   3.332 -25.127  0.00  0.00    -0.245 OA
ATOM     11  C   UNL     1      -1.829   3.024 -24.389  0.00  0.00    +0.148 A 
ENDROOT
BRANCH   1  14
ATOM     12  C   UNL     1      -2.503   2.379 -21.355  0.00  0.00    +0.178 C 
ATOM     13  O   UNL     1      -1.640   1.409 -21.292  0.00  0.00    -0.358 OA
ATOM     14  C   UNL     1      -1.607   2.245 -22.288  0.00  0.00    +0.189 C 
BRANCH  12  16
ATOM     15  C   UNL     1      -3.325   4.056 -20.096  0.00  0.00    +0.010 C 
ATOM     16  C   UNL     1      -3.519   3.016 -20.852  0.00  0.00    -0.049 C 
ATOM     17  C   UNL     1      -4.729   2.613 -21.105  0.00  0.00    +0.041 C 
ENDBRANCH  12  16
ENDBRANCH   1  14
BRANCH   2  18
ATOM     18  O   UNL     1       0.980   2.309 -22.537  0.00  0.00    -0.495 OA
ATOM     19  C   UNL     1       2.273   2.331 -22.666  0.00  0.00    +0.277 C 
ENDBRANCH   2  18
TORSDOF 3
ENDMDL
MODEL 8
REMARK VINA RESULT:    -7.532      1.055      3.677
REMARK INTER + INTRA:          -9.040
REMARK INTER:                  -8.867
REMARK INTRA:                  -0.173
REMARK UNBOUND:                -0.187
REMARK  Name = ZINC000014650529
REMARK  5 active torsions:
REMARK  status: ('A' for Active; 'I' for Inactive)
REMARK    1  A    between atoms: C_2  and  C_3
REMARK    2  A    between atoms: C_2  and  C_4
REMARK    3  A    between atoms: C_6  and  C_7
REMARK    4  A    between atoms: C_8  and  O_9
REMARK    5  A    between atoms: O_9  and  C_10
REMARK                            x       y       z     vdW  Elec       q    Type
REMARK                         _______ _______ _______ _____ _____    ______ ____
ROOT
ATOM      1  C   UNL     1       0.484   2.198 -22.468  0.00  0.00    +0.068 A 
ATOM      2  C   UNL     1       1.663   2.002 -21.958  0.00  0.00    +0.129 A 
ATOM      3  C   UNL     1       2.723   2.386 -22.606  0.00  0.00    +0.047 A 
ATOM      4  C   UNL     1       2.603   2.966 -23.763  0.00  0.00    +0.015 A 
ATOM      5  C   UNL     1       1.423   3.162 -24.272  0.00  0.00    +0.018 A 
ATOM      6  C   UNL     1       1.303   3.742 -25.429  0.00  0.00    +0.018 A 
ATOM      7  C   UNL     1       0.123   3.938 -25.939  0.00  0.00    +0.092 A 
ATOM      8  C   UNL     1      -0.937   3.553 -25.292  0.00  0.00    +0.337 A 
ATOM      9  O   UNL     1      -0.816   2.973 -24.134  0.00  0.00    -0.422 OA
ATOM     10  O   UNL     1      -2.116   3.749 -25.801  0.00  0.00    -0.245 OA
ATOM     11  C   UNL     1       0.364   2.777 -23.625  0.00  0.00    +0.148 A 
ENDROOT
BRANCH   1  14
ATOM     12  C   UNL     1      -1.775   2.054 -21.378  0.00  0.00    +0.178 C 
ATOM     13  O   UNL     1      -1.214   0.906 -21.140  0.00  0.00    -0.358 OA
ATOM     14  C   UNL     1      -0.576   1.813 -21.820  0.00  0.00    +0.189 C 
BRANCH  12  16
ATOM     15  C   UNL     1      -3.656   2.956 -22.228  0.00  0.00    +0.010 C 
ATOM     16  C   UNL     1      -2.792   2.855 -21.261  0.00  0.00    -0.049 C 
ATOM     17  C   UNL     1      -2.946   3.556 -20.177  0.00  0.00    +0.041 C 
ENDBRANCH  12  16
ENDBRANCH   1  14
BRANCH   2  18
ATOM     18  O   UNL     1       1.783   1.421 -20.800  0.00  0.00    -0.495 OA
ATOM     19  C   UNL     1       2.955   1.049 -20.379  0.00  0.00    +0.277 C 
ENDBRANCH   2  18
TORSDOF 3
ENDMDL
MODEL 9
REMARK VINA RESULT:    -7.280      1.573      5.668
REMARK INTER + INTRA:          -8.744
REMARK INTER:                  -8.557
REMARK INTRA:                  -0.187
REMARK UNBOUND:                -0.187
REMARK  Name = ZINC000014650529
REMARK  5 active torsions:
REMARK  status: ('A' for Active; 'I' for Inactive)
REMARK    1  A    between atoms: C_2  and  C_3
REMARK    2  A    between atoms: C_2  and  C_4
REMARK    3  A    between atoms: C_6  and  C_7
REMARK    4  A    between atoms: C_8  and  O_9
REMARK    5  A    between atoms: O_9  and  C_10
REMARK                            x       y       z     vdW  Elec       q    Type
REMARK                         _______ _______ _______ _____ _____    ______ ____
ROOT
ATOM      1  C   UNL     1       0.243   2.374 -23.017  0.00  0.00    +0.068 A 
ATOM      2  C   UNL     1       0.530   1.764 -21.905  0.00  0.00    +0.129 A 
ATOM      3  C   UNL     1      -0.412   1.480 -21.057  0.00  0.00    +0.047 A 
ATOM      4  C   UNL     1      -1.643   1.805 -21.319  0.00  0.00    +0.015 A 
ATOM      5  C   UNL     1      -1.931   2.415 -22.431  0.00  0.00    +0.018 A 
ATOM      6  C   UNL     1      -3.161   2.740 -22.694  0.00  0.00    +0.018 A 
ATOM      7  C   UNL     1      -3.450   3.350 -23.806  0.00  0.00    +0.092 A 
ATOM      8  C   UNL     1      -2.507   3.634 -24.655  0.00  0.00    +0.337 A 
ATOM      9  O   UNL     1      -1.276   3.308 -24.391  0.00  0.00    -0.422 OA
ATOM     10  O   UNL     1      -2.795   4.243 -25.766  0.00  0.00    -0.245 OA
ATOM     11  C   UNL     1      -0.988   2.699 -23.280  0.00  0.00    +0.148 A 
ENDROOT
BRANCH   1  14
ATOM     12  C   UNL     1       2.375   3.121 -24.115  0.00  0.00    +0.178 C 
ATOM     13  O   UNL     1       1.630   2.686 -25.088  0.00  0.00    -0.358 OA
ATOM     14  C   UNL     1       1.186   2.658 -23.866  0.00  0.00    +0.189 C 
BRANCH  12  16
ATOM     15  C   UNL     1       4.586   2.939 -23.728  0.00  0.00    +0.010 C 
ATOM     16  C   UNL     1       3.491   3.640 -23.697  0.00  0.00    -0.049 C 
ATOM     17  C   UNL     1       3.513   4.860 -23.249  0.00  0.00    +0.041 C 
ENDBRANCH  12  16
ENDBRANCH   1  14
BRANCH   2  18
ATOM     18  O   UNL     1       1.762   1.439 -21.643  0.00  0.00    -0.495 OA
ATOM     19  C   UNL     1       2.206   1.507 -20.423  0.00  0.00    +0.277 C 
ENDBRANCH   2  18
TORSDOF 3
ENDMDL
