MODEL 1
REMARK VINA RESULT:    -8.729      0.000      0.000
REMARK INTER + INTRA:         -13.914
REMARK INTER:                 -12.480
REMARK INTRA:                  -1.434
REMARK UNBOUND:                -0.592
REMARK  Name = ZINC000002004334
REMARK  9 active torsions:
REMARK  status: ('A' for Active; 'I' for Inactive)
REMARK    1  A    between atoms: C_2  and  C_3
REMARK    2  A    between atoms: C_3  and  N_4
REMARK    3  A    between atoms: C_5  and  O_7
REMARK    4  A    between atoms: O_7  and  C_8
REMARK    5  A    between atoms: C_8  and  C_9
REMARK    6  A    between atoms: N_15  and  CA_16
REMARK    7  A    between atoms: CA_16  and  CB_17
REMARK    8  A    between atoms: CA_16  and  C_24
REMARK    9  A    between atoms: CB_17  and  CG_18
REMARK                            x       y       z     vdW  Elec       q    Type
REMARK                         _______ _______ _______ _____ _____    ______ ____
ROOT
ATOM      1  O   UNK A   0       5.389   0.650 -22.196  0.00  0.00    -0.274 OA
ATOM      2  C   UNK A   0       4.563   1.264 -21.401  0.00  0.00    +0.231 C 
ATOM      3  N   PHE A   1       4.561   2.562 -21.344  0.00  0.00    -0.306 N 
ATOM      4  H   PHE A   1       3.936   3.028 -20.742  0.00  0.00    +0.149 HD
ENDROOT
BRANCH   3   5
ATOM      5  CA  PHE A   1       5.385   3.247 -22.080  0.00  0.00    +0.123 C 
BRANCH   5   6
ATOM      6  C   PHE A   1       6.537   3.609 -21.600  0.00  0.00    +0.062 C 
ATOM      7  OXT PHE A   1       7.541   3.812 -22.400  0.00  0.00    -0.548 OA
ATOM      8  O   PHE A   1       6.685   3.769 -20.318  0.00  0.00    -0.548 OA
ENDBRANCH   5   6
BRANCH   5   9
ATOM      9  CB  PHE A   1       5.056   3.570 -23.295  0.00  0.00    +0.063 C 
BRANCH   9  10
ATOM     10  CG  PHE A   1       3.835   3.919 -23.567  0.00  0.00    -0.045 A 
ATOM     11  CD2 PHE A   1       3.070   3.132 -24.262  0.00  0.00    +0.004 A 
ATOM     12  CE2 PHE A   1       1.849   3.479 -24.535  0.00  0.00    +0.000 A 
ATOM     13  CZ  PHE A   1       1.388   4.622 -24.110  0.00  0.00    +0.000 A 
ATOM     14  CE1 PHE A   1       2.152   5.409 -23.415  0.00  0.00    +0.000 A 
ATOM     15  CD1 PHE A   1       3.374   5.062 -23.142  0.00  0.00    +0.004 A 
ENDBRANCH   9  10
ENDBRANCH   5   9
ENDBRANCH   3   5
BRANCH   2  16
ATOM     16  C   UNK A   0       3.739   0.579 -20.665  0.00  0.00    +0.203 C 
BRANCH  16  17
ATOM     17  N   UNK A   0       2.576   1.071 -20.361  0.00  0.00    -0.273 N 
ATOM     18  H   UNK A   0       2.425   1.470 -19.474  0.00  0.00    +0.153 HD
ATOM     19  C   UNK A   0       1.609   1.036 -21.230  0.00  0.00    +0.401 C 
ATOM     20  O   UNK A   0       1.806   0.509 -22.401  0.00  0.00    -0.226 OA
BRANCH  19  21
ATOM     21  O   UNK A   0       0.445   1.528 -20.926  0.00  0.00    -0.446 OA
BRANCH  21  22
ATOM     22  C   UNK A   0      -0.579   1.297 -21.694  0.00  0.00    +0.269 C 
BRANCH  22  23
ATOM     23  C   UNK A   0      -1.140   2.274 -22.340  0.00  0.00    -0.010 A 
ATOM     24  C   UNK A   0      -1.444   2.132 -23.599  0.00  0.00    +0.007 A 
ATOM     25  C   UNK A   0      -2.005   3.110 -24.244  0.00  0.00    +0.000 A 
ATOM     26  C   UNK A   0      -2.263   4.230 -23.637  0.00  0.00    +0.000 A 
ATOM     27  C   UNK A   0      -1.959   4.372 -22.378  0.00  0.00    +0.000 A 
ATOM     28  C   UNK A   0      -1.398   3.393 -21.735  0.00  0.00    +0.007 A 
ENDBRANCH  22  23
ENDBRANCH  21  22
ENDBRANCH  19  21
ENDBRANCH  16  17
ENDBRANCH   2  16
TORSDOF 9
ENDMDL
MODEL 2
REMARK VINA RESULT:    -8.705      2.437      4.191
REMARK INTER + INTRA:         -13.878
REMARK INTER:                 -13.199
REMARK INTRA:                  -0.678
REMARK UNBOUND:                -0.592
REMARK  Name = ZINC000002004334
REMARK  9 active torsions:
REMARK  status: ('A' for Active; 'I' for Inactive)
REMARK    1  A    between atoms: C_2  and  C_3
REMARK    2  A    between atoms: C_3  and  N_4
REMARK    3  A    between atoms: C_5  and  O_7
REMARK    4  A    between atoms: O_7  and  C_8
REMARK    5  A    between atoms: C_8  and  C_9
REMARK    6  A    between atoms: N_15  and  CA_16
REMARK    7  A    between atoms: CA_16  and  CB_17
REMARK    8  A    between atoms: CA_16  and  C_24
REMARK    9  A    between atoms: CB_17  and  CG_18
REMARK                            x       y       z     vdW  Elec       q    Type
REMARK                         _______ _______ _______ _____ _____    ______ ____
ROOT
ATOM      1  O   UNK A   0       2.581   0.773 -24.818  0.00  0.00    -0.274 OA
ATOM      2  C   UNK A   0       2.259   1.965 -24.410  0.00  0.00    +0.231 C 
ATOM      3  N   PHE A   1       2.657   2.382 -23.245  0.00  0.00    -0.306 N 
ATOM      4  H   PHE A   1       2.413   3.285 -22.936  0.00  0.00    +0.149 HD
ENDROOT
BRANCH   3   5
ATOM      5  CA  PHE A   1       3.377   1.609 -22.488  0.00  0.00    +0.123 C 
BRANCH   5   6
ATOM      6  C   PHE A   1       2.819   0.948 -21.518  0.00  0.00    +0.062 C 
ATOM      7  OXT PHE A   1       3.487   0.028 -20.888  0.00  0.00    -0.548 OA
ATOM      8  O   PHE A   1       1.591   1.208 -21.178  0.00  0.00    -0.548 OA
ENDBRANCH   5   6
BRANCH   5   9
ATOM      9  CB  PHE A   1       4.655   1.497 -22.701  0.00  0.00    +0.063 C 
BRANCH   9  10
ATOM     10  CG  PHE A   1       5.439   2.511 -22.496  0.00  0.00    -0.045 A 
ATOM     11  CD2 PHE A   1       5.844   2.791 -21.293  0.00  0.00    +0.004 A 
ATOM     12  CE2 PHE A   1       6.628   3.805 -21.086  0.00  0.00    +0.000 A 
ATOM     13  CZ  PHE A   1       7.011   4.546 -22.087  0.00  0.00    +0.000 A 
ATOM     14  CE1 PHE A   1       6.606   4.267 -23.290  0.00  0.00    +0.000 A 
ATOM     15  CD1 PHE A   1       5.822   3.252 -23.497  0.00  0.00    +0.004 A 
ENDBRANCH   9  10
ENDBRANCH   5   9
ENDBRANCH   3   5
BRANCH   2  16
ATOM     16  C   UNK A   0       1.539   2.739 -25.167  0.00  0.00    +0.203 C 
BRANCH  16  17
ATOM     17  N   UNK A   0       0.294   2.963 -24.870  0.00  0.00    -0.273 N 
ATOM     18  H   UNK A   0      -0.385   2.271 -25.039  0.00  0.00    +0.153 HD
ATOM     19  C   UNK A   0      -0.055   4.102 -24.350  0.00  0.00    +0.401 C 
ATOM     20  O   UNK A   0       0.841   5.017 -24.126  0.00  0.00    -0.226 OA
BRANCH  19  21
ATOM     21  O   UNK A   0      -1.300   4.326 -24.053  0.00  0.00    -0.446 OA
BRANCH  21  22
ATOM     22  C   UNK A   0      -2.195   3.409 -24.272  0.00  0.00    +0.269 C 
BRANCH  22  23
ATOM     23  C   UNK A   0      -3.292   3.392 -23.576  0.00  0.00    -0.010 A 
ATOM     24  C   UNK A   0      -4.418   3.751 -24.126  0.00  0.00    +0.007 A 
ATOM     25  C   UNK A   0      -5.513   3.734 -23.428  0.00  0.00    +0.000 A 
ATOM     26  C   UNK A   0      -5.491   3.359 -22.184  0.00  0.00    +0.000 A 
ATOM     27  C   UNK A   0      -4.365   3.000 -21.634  0.00  0.00    +0.000 A 
ATOM     28  C   UNK A   0      -3.270   3.018 -22.332  0.00  0.00    +0.007 A 
ENDBRANCH  22  23
ENDBRANCH  21  22
ENDBRANCH  19  21
ENDBRANCH  16  17
ENDBRANCH   2  16
TORSDOF 9
ENDMDL
MODEL 3
REMARK VINA RESULT:    -8.588      1.325      1.752
REMARK INTER + INTRA:         -13.699
REMARK INTER:                 -13.173
REMARK INTRA:                  -0.526
REMARK UNBOUND:                -0.592
REMARK  Name = ZINC000002004334
REMARK  9 active torsions:
REMARK  status: ('A' for Active; 'I' for Inactive)
REMARK    1  A    between atoms: C_2  and  C_3
REMARK    2  A    between atoms: C_3  and  N_4
REMARK    3  A    between atoms: C_5  and  O_7
REMARK    4  A    between atoms: O_7  and  C_8
REMARK    5  A    between atoms: C_8  and  C_9
REMARK    6  A    between atoms: N_15  and  CA_16
REMARK    7  A    between atoms: CA_16  and  CB_17
REMARK    8  A    between atoms: CA_16  and  C_24
REMARK    9  A    between atoms: CB_17  and  CG_18
REMARK                            x       y       z     vdW  Elec       q    Type
REMARK                         _______ _______ _______ _____ _____    ______ ____
ROOT
ATOM      1  O   UNK A   0       4.237   0.571 -22.265  0.00  0.00    -0.274 OA
ATOM      2  C   UNK A   0       3.494   1.327 -21.510  0.00  0.00    +0.231 C 
ATOM      3  N   PHE A   1       3.727   2.603 -21.442  0.00  0.00    -0.306 N 
ATOM      4  H   PHE A   1       3.165   3.176 -20.871  0.00  0.00    +0.149 HD
ENDROOT
BRANCH   3   5
ATOM      5  CA  PHE A   1       4.701   3.125 -22.127  0.00  0.00    +0.123 C 
BRANCH   5   6
ATOM      6  C   PHE A   1       5.907   3.129 -21.641  0.00  0.00    +0.062 C 
ATOM      7  OXT PHE A   1       6.090   3.116 -20.354  0.00  0.00    -0.548 OA
ATOM      8  O   PHE A   1       6.929   3.145 -22.443  0.00  0.00    -0.548 OA
ENDBRANCH   5   6
BRANCH   5   9
ATOM      9  CB  PHE A   1       4.469   3.644 -23.296  0.00  0.00    +0.063 C 
BRANCH   9  10
ATOM     10  CG  PHE A   1       3.249   3.889 -23.667  0.00  0.00    -0.045 A 
ATOM     11  CD2 PHE A   1       2.622   3.056 -24.442  0.00  0.00    +0.004 A 
ATOM     12  CE2 PHE A   1       1.402   3.300 -24.815  0.00  0.00    +0.000 A 
ATOM     13  CZ  PHE A   1       0.804   4.385 -24.410  0.00  0.00    +0.000 A 
ATOM     14  CE1 PHE A   1       1.430   5.218 -23.635  0.00  0.00    +0.000 A 
ATOM     15  CD1 PHE A   1       2.651   4.974 -23.263  0.00  0.00    +0.004 A 
ENDBRANCH   9  10
ENDBRANCH   5   9
ENDBRANCH   3   5
BRANCH   2  16
ATOM     16  C   UNK A   0       2.520   0.805 -20.826  0.00  0.00    +0.203 C 
BRANCH  16  17
ATOM     17  N   UNK A   0       1.466   1.513 -20.552  0.00  0.00    -0.273 N 
ATOM     18  H   UNK A   0       1.442   2.069 -19.741  0.00  0.00    +0.153 HD
ATOM     19  C   UNK A   0       0.441   1.486 -21.351  0.00  0.00    +0.401 C 
ATOM     20  O   UNK A   0       0.470   0.752 -22.424  0.00  0.00    -0.226 OA
BRANCH  19  21
ATOM     21  O   UNK A   0      -0.615   2.194 -21.078  0.00  0.00    -0.446 OA
BRANCH  21  22
ATOM     22  C   UNK A   0      -1.109   2.996 -21.974  0.00  0.00    +0.269 C 
BRANCH  22  23
ATOM     23  C   UNK A   0      -2.397   3.128 -22.088  0.00  0.00    -0.010 A 
ATOM     24  C   UNK A   0      -3.156   3.036 -21.033  0.00  0.00    +0.007 A 
ATOM     25  C   UNK A   0      -4.443   3.169 -21.148  0.00  0.00    +0.000 A 
ATOM     26  C   UNK A   0      -4.975   3.393 -22.312  0.00  0.00    +0.000 A 
ATOM     27  C   UNK A   0      -4.216   3.486 -23.367  0.00  0.00    +0.000 A 
ATOM     28  C   UNK A   0      -2.929   3.353 -23.251  0.00  0.00    +0.007 A 
ENDBRANCH  22  23
ENDBRANCH  21  22
ENDBRANCH  19  21
ENDBRANCH  16  17
ENDBRANCH   2  16
TORSDOF 9
ENDMDL
MODEL 4
REMARK VINA RESULT:    -8.298      2.461      6.430
REMARK INTER + INTRA:         -13.257
REMARK INTER:                 -12.301
REMARK INTRA:                  -0.955
REMARK UNBOUND:                -0.592
REMARK  Name = ZINC000002004334
REMARK  9 active torsions:
REMARK  status: ('A' for Active; 'I' for Inactive)
REMARK    1  A    between atoms: C_2  and  C_3
REMARK    2  A    between atoms: C_3  and  N_4
REMARK    3  A    between atoms: C_5  and  O_7
REMARK    4  A    between atoms: O_7  and  C_8
REMARK    5  A    between atoms: C_8  and  C_9
REMARK    6  A    between atoms: N_15  and  CA_16
REMARK    7  A    between atoms: CA_16  and  CB_17
REMARK    8  A    between atoms: CA_16  and  C_24
REMARK    9  A    between atoms: CB_17  and  CG_18
REMARK                            x       y       z     vdW  Elec       q    Type
REMARK                         _______ _______ _______ _____ _____    ______ ____
ROOT
ATOM      1  O   UNK A   0      -2.106   3.284 -21.064  0.00  0.00    -0.274 OA
ATOM      2  C   UNK A   0      -1.800   2.327 -21.890  0.00  0.00    +0.231 C 
ATOM      3  N   PHE A   1      -2.060   2.455 -23.156  0.00  0.00    -0.306 N 
ATOM      4  H   PHE A   1      -1.828   1.730 -23.782  0.00  0.00    +0.149 HD
ENDROOT
BRANCH   3   5
ATOM      5  CA  PHE A   1      -2.626   3.538 -23.598  0.00  0.00    +0.123 C 
BRANCH   5   6
ATOM      6  C   PHE A   1      -3.896   3.540 -23.877  0.00  0.00    +0.062 C 
ATOM      7  OXT PHE A   1      -4.773   3.558 -22.917  0.00  0.00    -0.548 OA
ATOM      8  O   PHE A   1      -4.289   3.523 -25.116  0.00  0.00    -0.548 OA
ENDBRANCH   5   6
BRANCH   5   9
ATOM      9  CB  PHE A   1      -1.923   4.620 -23.762  0.00  0.00    +0.063 C 
BRANCH   9  10
ATOM     10  CG  PHE A   1      -0.661   4.535 -24.054  0.00  0.00    -0.045 A 
ATOM     11  CD2 PHE A   1      -0.283   3.977 -25.165  0.00  0.00    +0.004 A 
ATOM     12  CE2 PHE A   1       0.979   3.892 -25.459  0.00  0.00    +0.000 A 
ATOM     13  CZ  PHE A   1       1.871   4.368 -24.637  0.00  0.00    +0.000 A 
ATOM     14  CE1 PHE A   1       1.495   4.926 -23.526  0.00  0.00    +0.000 A 
ATOM     15  CD1 PHE A   1       0.232   5.011 -23.232  0.00  0.00    +0.004 A 
ENDBRANCH   9  10
ENDBRANCH   5   9
ENDBRANCH   3   5
BRANCH   2  16
ATOM     16  C   UNK A   0      -1.234   1.243 -21.448  0.00  0.00    +0.203 C 
BRANCH  16  17
ATOM     17  N   UNK A   0      -0.050   1.299 -20.916  0.00  0.00    -0.273 N 
ATOM     18  H   UNK A   0       0.049   1.338 -19.937  0.00  0.00    +0.153 HD
ATOM     19  C   UNK A   0       1.005   1.304 -21.677  0.00  0.00    +0.401 C 
ATOM     20  O   UNK A   0       0.875   1.254 -22.969  0.00  0.00    -0.226 OA
BRANCH  19  21
ATOM     21  O   UNK A   0       2.189   1.360 -21.144  0.00  0.00    -0.446 OA
BRANCH  21  22
ATOM     22  C   UNK A   0       3.225   0.964 -21.822  0.00  0.00    +0.269 C 
BRANCH  22  23
ATOM     23  C   UNK A   0       4.184   1.798 -22.091  0.00  0.00    -0.010 A 
ATOM     24  C   UNK A   0       4.302   2.289 -23.293  0.00  0.00    +0.007 A 
ATOM     25  C   UNK A   0       5.261   3.123 -23.560  0.00  0.00    +0.000 A 
ATOM     26  C   UNK A   0       6.103   3.470 -22.633  0.00  0.00    +0.000 A 
ATOM     27  C   UNK A   0       5.985   2.980 -21.431  0.00  0.00    +0.000 A 
ATOM     28  C   UNK A   0       5.026   2.146 -21.165  0.00  0.00    +0.007 A 
ENDBRANCH  22  23
ENDBRANCH  21  22
ENDBRANCH  19  21
ENDBRANCH  16  17
ENDBRANCH   2  16
TORSDOF 9
ENDMDL
MODEL 5
REMARK VINA RESULT:    -8.271      2.376      4.027
REMARK INTER + INTRA:         -13.215
REMARK INTER:                 -13.173
REMARK INTRA:                  -0.042
REMARK UNBOUND:                -0.592
REMARK  Name = ZINC000002004334
REMARK  9 active torsions:
REMARK  status: ('A' for Active; 'I' for Inactive)
REMARK    1  A    between atoms: C_2  and  C_3
REMARK    2  A    between atoms: C_3  and  N_4
REMARK    3  A    between atoms: C_5  and  O_7
REMARK    4  A    between atoms: O_7  and  C_8
REMARK    5  A    between atoms: C_8  and  C_9
REMARK    6  A    between atoms: N_15  and  CA_16
REMARK    7  A    between atoms: CA_16  and  CB_17
REMARK    8  A    between atoms: CA_16  and  C_24
REMARK    9  A    between atoms: CB_17  and  CG_18
REMARK                            x       y       z     vdW  Elec       q    Type
REMARK                         _______ _______ _______ _____ _____    ______ ____
ROOT
ATOM      1  O   UNK A   0      -0.086   1.269 -22.880  0.00  0.00    -0.274 OA
ATOM      2  C   UNK A   0       0.005   1.674 -21.647  0.00  0.00    +0.231 C 
ATOM      3  N   PHE A   1       1.174   1.859 -21.110  0.00  0.00    -0.306 N 
ATOM      4  H   PHE A   1       1.243   2.166 -20.177  0.00  0.00    +0.149 HD
ENDROOT
BRANCH   3   5
ATOM      5  CA  PHE A   1       2.251   1.639 -21.803  0.00  0.00    +0.123 C 
BRANCH   5   6
ATOM      6  C   PHE A   1       2.749   0.440 -21.866  0.00  0.00    +0.062 C 
ATOM      7  OXT PHE A   1       3.539   0.013 -20.926  0.00  0.00    -0.548 OA
ATOM      8  O   PHE A   1       2.456  -0.333 -22.869  0.00  0.00    -0.548 OA
ENDBRANCH   5   6
BRANCH   5   9
ATOM      9  CB  PHE A   1       2.831   2.618 -22.432  0.00  0.00    +0.063 C 
BRANCH   9  10
ATOM     10  CG  PHE A   1       2.267   3.141 -23.478  0.00  0.00    -0.045 A 
ATOM     11  CD2 PHE A   1       2.248   2.493 -24.604  0.00  0.00    +0.004 A 
ATOM     12  CE2 PHE A   1       1.685   3.014 -25.651  0.00  0.00    +0.000 A 
ATOM     13  CZ  PHE A   1       1.136   4.194 -25.574  0.00  0.00    +0.000 A 
ATOM     14  CE1 PHE A   1       1.155   4.843 -24.449  0.00  0.00    +0.000 A 
ATOM     15  CD1 PHE A   1       1.718   4.321 -23.401  0.00  0.00    +0.004 A 
ENDBRANCH   9  10
ENDBRANCH   5   9
ENDBRANCH   3   5
BRANCH   2  16
ATOM     16  C   UNK A   0      -1.072   1.894 -20.955  0.00  0.00    +0.203 C 
BRANCH  16  17
ATOM     17  N   UNK A   0      -2.235   1.863 -21.534  0.00  0.00    -0.273 N 
ATOM     18  H   UNK A   0      -2.518   1.060 -22.027  0.00  0.00    +0.153 HD
ATOM     19  C   UNK A   0      -3.024   2.894 -21.461  0.00  0.00    +0.401 C 
ATOM     20  O   UNK A   0      -2.651   3.955 -20.810  0.00  0.00    -0.226 OA
BRANCH  19  21
ATOM     21  O   UNK A   0      -4.187   2.863 -22.040  0.00  0.00    -0.446 OA
BRANCH  21  22
ATOM     22  C   UNK A   0      -4.489   3.753 -22.939  0.00  0.00    +0.269 C 
BRANCH  22  23
ATOM     23  C   UNK A   0      -4.039   3.630 -24.152  0.00  0.00    -0.010 A 
ATOM     24  C   UNK A   0      -4.869   3.441 -25.138  0.00  0.00    +0.007 A 
ATOM     25  C   UNK A   0      -4.417   3.318 -26.350  0.00  0.00    +0.000 A 
ATOM     26  C   UNK A   0      -3.140   3.383 -26.581  0.00  0.00    +0.000 A 
ATOM     27  C   UNK A   0      -2.310   3.572 -25.595  0.00  0.00    +0.000 A 
ATOM     28  C   UNK A   0      -2.763   3.695 -24.383  0.00  0.00    +0.007 A 
ENDBRANCH  22  23
ENDBRANCH  21  22
ENDBRANCH  19  21
ENDBRANCH  16  17
ENDBRANCH   2  16
TORSDOF 9
ENDMDL
MODEL 6
REMARK VINA RESULT:    -8.182      2.198      6.449
REMARK INTER + INTRA:         -13.079
REMARK INTER:                 -12.644
REMARK INTRA:                  -0.434
REMARK UNBOUND:                -0.592
REMARK  Name = ZINC000002004334
REMARK  9 active torsions:
REMARK  status: ('A' for Active; 'I' for Inactive)
REMARK    1  A    between atoms: C_2  and  C_3
REMARK    2  A    between atoms: C_3  and  N_4
REMARK    3  A    between atoms: C_5  and  O_7
REMARK    4  A    between atoms: O_7  and  C_8
REMARK    5  A    between atoms: C_8  and  C_9
REMARK    6  A    between atoms: N_15  and  CA_16
REMARK    7  A    between atoms: CA_16  and  CB_17
REMARK    8  A    between atoms: CA_16  and  C_24
REMARK    9  A    between atoms: CB_17  and  CG_18
REMARK                            x       y       z     vdW  Elec       q    Type
REMARK                         _______ _______ _______ _____ _____    ______ ____
ROOT
ATOM      1  O   UNK A   0      -0.653   1.432 -23.244  0.00  0.00    -0.274 OA
ATOM      2  C   UNK A   0       0.218   2.087 -22.533  0.00  0.00    +0.231 C 
ATOM      3  N   PHE A   1       0.321   3.376 -22.661  0.00  0.00    -0.306 N 
ATOM      4  H   PHE A   1       0.980   3.873 -22.123  0.00  0.00    +0.149 HD
ENDROOT
BRANCH   3   5
ATOM      5  CA  PHE A   1      -0.444   4.011 -23.498  0.00  0.00    +0.123 C 
BRANCH   5   6
ATOM      6  C   PHE A   1      -0.212   3.937 -24.774  0.00  0.00    +0.062 C 
ATOM      7  OXT PHE A   1       0.994   4.112 -25.228  0.00  0.00    -0.548 OA
ATOM      8  O   PHE A   1      -1.186   3.687 -25.598  0.00  0.00    -0.548 OA
ENDBRANCH   5   6
BRANCH   5   9
ATOM      9  CB  PHE A   1      -1.441   4.720 -23.058  0.00  0.00    +0.063 C 
BRANCH   9  10
ATOM     10  CG  PHE A   1      -2.388   4.154 -22.373  0.00  0.00    -0.045 A 
ATOM     11  CD2 PHE A   1      -3.372   3.564 -22.982  0.00  0.00    +0.004 A 
ATOM     12  CE2 PHE A   1      -4.320   2.998 -22.298  0.00  0.00    +0.000 A 
ATOM     13  CZ  PHE A   1      -4.285   3.021 -20.996  0.00  0.00    +0.000 A 
ATOM     14  CE1 PHE A   1      -3.301   3.612 -20.386  0.00  0.00    +0.000 A 
ATOM     15  CD1 PHE A   1      -2.353   4.178 -21.070  0.00  0.00    +0.004 A 
ENDBRANCH   9  10
ENDBRANCH   5   9
ENDBRANCH   3   5
BRANCH   2  16
ATOM     16  C   UNK A   0       0.983   1.452 -21.696  0.00  0.00    +0.203 C 
BRANCH  16  17
ATOM     17  N   UNK A   0       2.265   1.662 -21.700  0.00  0.00    -0.273 N 
ATOM     18  H   UNK A   0       2.634   2.464 -21.263  0.00  0.00    +0.153 HD
ATOM     19  C   UNK A   0       3.061   0.813 -22.280  0.00  0.00    +0.401 C 
ATOM     20  O   UNK A   0       2.574  -0.245 -22.856  0.00  0.00    -0.226 OA
BRANCH  19  21
ATOM     21  O   UNK A   0       4.344   1.024 -22.283  0.00  0.00    -0.446 OA
BRANCH  21  22
ATOM     22  C   UNK A   0       4.870   1.842 -21.421  0.00  0.00    +0.269 C 
BRANCH  22  23
ATOM     23  C   UNK A   0       5.657   2.793 -21.825  0.00  0.00    -0.010 A 
ATOM     24  C   UNK A   0       5.699   3.111 -23.088  0.00  0.00    +0.007 A 
ATOM     25  C   UNK A   0       6.487   4.063 -23.490  0.00  0.00    +0.000 A 
ATOM     26  C   UNK A   0       7.234   4.698 -22.636  0.00  0.00    +0.000 A 
ATOM     27  C   UNK A   0       7.192   4.379 -21.373  0.00  0.00    +0.000 A 
ATOM     28  C   UNK A   0       6.404   3.428 -20.972  0.00  0.00    +0.007 A 
ENDBRANCH  22  23
ENDBRANCH  21  22
ENDBRANCH  19  21
ENDBRANCH  16  17
ENDBRANCH   2  16
TORSDOF 9
ENDMDL
MODEL 7
REMARK VINA RESULT:    -7.844      2.533      3.889
REMARK INTER + INTRA:         -12.563
REMARK INTER:                 -11.971
REMARK INTRA:                  -0.592
REMARK UNBOUND:                -0.592
REMARK  Name = ZINC000002004334
REMARK  9 active torsions:
REMARK  status: ('A' for Active; 'I' for Inactive)
REMARK    1  A    between atoms: C_2  and  C_3
REMARK    2  A    between atoms: C_3  and  N_4
REMARK    3  A    between atoms: C_5  and  O_7
REMARK    4  A    between atoms: O_7  and  C_8
REMARK    5  A    between atoms: C_8  and  C_9
REMARK    6  A    between atoms: N_15  and  CA_16
REMARK    7  A    between atoms: CA_16  and  CB_17
REMARK    8  A    between atoms: CA_16  and  C_24
REMARK    9  A    between atoms: CB_17  and  CG_18
REMARK                            x       y       z     vdW  Elec       q    Type
REMARK                         _______ _______ _______ _____ _____    ______ ____
ROOT
ATOM      1  O   UNK A   0       3.258   4.918 -22.445  0.00  0.00    -0.274 OA
ATOM      2  C   UNK A   0       2.792   4.414 -23.550  0.00  0.00    +0.231 C 
ATOM      3  N   PHE A   1       3.179   3.237 -23.940  0.00  0.00    -0.306 N 
ATOM      4  H   PHE A   1       2.827   2.855 -24.777  0.00  0.00    +0.149 HD
ENDROOT
BRANCH   3   5
ATOM      5  CA  PHE A   1       4.031   2.562 -23.227  0.00  0.00    +0.123 C 
BRANCH   5   6
ATOM      6  C   PHE A   1       5.267   2.957 -23.147  0.00  0.00    +0.062 C 
ATOM      7  OXT PHE A   1       5.954   3.167 -24.231  0.00  0.00    -0.548 OA
ATOM      8  O   PHE A   1       5.816   3.141 -21.983  0.00  0.00    -0.548 OA
ENDBRANCH   5   6
BRANCH   5   9
ATOM      9  CB  PHE A   1       3.647   1.493 -22.594  0.00  0.00    +0.063 C 
BRANCH   9  10
ATOM     10  CG  PHE A   1       2.504   1.478 -21.979  0.00  0.00    -0.045 A 
ATOM     11  CD2 PHE A   1       2.457   1.559 -20.684  0.00  0.00    +0.004 A 
ATOM     12  CE2 PHE A   1       1.314   1.544 -20.067  0.00  0.00    +0.000 A 
ATOM     13  CZ  PHE A   1       0.209   1.448 -20.750  0.00  0.00    +0.000 A 
ATOM     14  CE1 PHE A   1       0.254   1.367 -22.046  0.00  0.00    +0.000 A 
ATOM     15  CD1 PHE A   1       1.398   1.382 -22.662  0.00  0.00    +0.004 A 
ENDBRANCH   9  10
ENDBRANCH   5   9
ENDBRANCH   3   5
BRANCH   2  16
ATOM     16  C   UNK A   0       1.940   5.089 -24.263  0.00  0.00    +0.203 C 
BRANCH  16  17
ATOM     17  N   UNK A   0       0.705   5.192 -23.875  0.00  0.00    -0.273 N 
ATOM     18  H   UNK A   0       0.451   5.876 -23.215  0.00  0.00    +0.153 HD
ATOM     19  C   UNK A   0      -0.197   4.390 -24.358  0.00  0.00    +0.401 C 
ATOM     20  O   UNK A   0       0.136   3.485 -25.230  0.00  0.00    -0.226 OA
BRANCH  19  21
ATOM     21  O   UNK A   0      -1.433   4.493 -23.969  0.00  0.00    -0.446 OA
BRANCH  21  22
ATOM     22  C   UNK A   0      -2.245   3.487 -24.111  0.00  0.00    +0.269 C 
BRANCH  22  23
ATOM     23  C   UNK A   0      -3.259   3.353 -23.311  0.00  0.00    -0.010 A 
ATOM     24  C   UNK A   0      -4.450   3.710 -23.704  0.00  0.00    +0.007 A 
ATOM     25  C   UNK A   0      -5.463   3.575 -22.902  0.00  0.00    +0.000 A 
ATOM     26  C   UNK A   0      -5.293   3.085 -21.711  0.00  0.00    +0.000 A 
ATOM     27  C   UNK A   0      -4.103   2.728 -21.318  0.00  0.00    +0.000 A 
ATOM     28  C   UNK A   0      -3.091   2.863 -22.120  0.00  0.00    +0.007 A 
ENDBRANCH  22  23
ENDBRANCH  21  22
ENDBRANCH  19  21
ENDBRANCH  16  17
ENDBRANCH   2  16
TORSDOF 9
ENDMDL
MODEL 8
REMARK VINA RESULT:    -7.770      2.298      3.777
REMARK INTER + INTRA:         -12.450
REMARK INTER:                 -12.361
REMARK INTRA:                  -0.090
REMARK UNBOUND:                -0.592
REMARK  Name = ZINC000002004334
REMARK  9 active torsions:
REMARK  status: ('A' for Active; 'I' for Inactive)
REMARK    1  A    between atoms: C_2  and  C_3
REMARK    2  A    between atoms: C_3  and  N_4
REMARK    3  A    between atoms: C_5  and  O_7
REMARK    4  A    between atoms: O_7  and  C_8
REMARK    5  A    between atoms: C_8  and  C_9
REMARK    6  A    between atoms: N_15  and  CA_16
REMARK    7  A    between atoms: CA_16  and  CB_17
REMARK    8  A    between atoms: CA_16  and  C_24
REMARK    9  A    between atoms: CB_17  and  CG_18
REMARK                            x       y       z     vdW  Elec       q    Type
REMARK                         _______ _______ _______ _____ _____    ______ ____
ROOT
ATOM      1  O   UNK A   0       2.289   1.131 -23.758  0.00  0.00    -0.274 OA
ATOM      2  C   UNK A   0       2.090   1.741 -22.627  0.00  0.00    +0.231 C 
ATOM      3  N   PHE A   1       2.394   2.998 -22.505  0.00  0.00    -0.306 N 
ATOM      4  H   PHE A   1       2.243   3.461 -21.648  0.00  0.00    +0.149 HD
ENDROOT
BRANCH   3   5
ATOM      5  CA  PHE A   1       2.897   3.647 -23.513  0.00  0.00    +0.123 C 
BRANCH   5   6
ATOM      6  C   PHE A   1       2.135   4.410 -24.239  0.00  0.00    +0.062 C 
ATOM      7  OXT PHE A   1       1.880   5.627 -23.859  0.00  0.00    -0.548 OA
ATOM      8  O   PHE A   1       1.629   3.955 -25.347  0.00  0.00    -0.548 OA
ENDBRANCH   5   6
BRANCH   5   9
ATOM      9  CB  PHE A   1       4.161   3.534 -23.793  0.00  0.00    +0.063 C 
BRANCH   9  10
ATOM     10  CG  PHE A   1       5.055   3.880 -22.917  0.00  0.00    -0.045 A 
ATOM     11  CD2 PHE A   1       5.463   5.112 -22.852  0.00  0.00    +0.004 A 
ATOM     12  CE2 PHE A   1       6.357   5.460 -21.976  0.00  0.00    +0.000 A 
ATOM     13  CZ  PHE A   1       6.846   4.571 -21.158  0.00  0.00    +0.000 A 
ATOM     14  CE1 PHE A   1       6.438   3.340 -21.222  0.00  0.00    +0.000 A 
ATOM     15  CD1 PHE A   1       5.544   2.991 -22.099  0.00  0.00    +0.004 A 
ENDBRANCH   9  10
ENDBRANCH   5   9
ENDBRANCH   3   5
BRANCH   2  16
ATOM     16  C   UNK A   0       1.586   1.093 -21.619  0.00  0.00    +0.203 C 
BRANCH  16  17
ATOM     17  N   UNK A   0       0.503   1.522 -21.045  0.00  0.00    -0.273 N 
ATOM     18  H   UNK A   0       0.528   1.824 -20.108  0.00  0.00    +0.153 HD
ATOM     19  C   UNK A   0      -0.615   1.554 -21.708  0.00  0.00    +0.401 C 
ATOM     20  O   UNK A   0      -0.649   1.156 -22.945  0.00  0.00    -0.226 OA
BRANCH  19  21
ATOM     21  O   UNK A   0      -1.699   1.984 -21.133  0.00  0.00    -0.446 OA
BRANCH  21  22
ATOM     22  C   UNK A   0      -2.159   3.167 -21.418  0.00  0.00    +0.269 C 
BRANCH  22  23
ATOM     23  C   UNK A   0      -3.311   3.291 -22.005  0.00  0.00    -0.010 A 
ATOM     24  C   UNK A   0      -4.405   2.993 -21.362  0.00  0.00    +0.007 A 
ATOM     25  C   UNK A   0      -5.556   3.118 -21.951  0.00  0.00    +0.000 A 
ATOM     26  C   UNK A   0      -5.620   3.540 -23.179  0.00  0.00    +0.000 A 
ATOM     27  C   UNK A   0      -4.526   3.838 -23.821  0.00  0.00    +0.000 A 
ATOM     28  C   UNK A   0      -3.376   3.712 -23.232  0.00  0.00    +0.007 A 
ENDBRANCH  22  23
ENDBRANCH  21  22
ENDBRANCH  19  21
ENDBRANCH  16  17
ENDBRANCH   2  16
TORSDOF 9
ENDMDL
MODEL 9
REMARK VINA RESULT:    -7.734      3.589      6.505
REMARK INTER + INTRA:         -12.395
REMARK INTER:                 -11.834
REMARK INTRA:                  -0.562
REMARK UNBOUND:                -0.592
REMARK  Name = ZINC000002004334
REMARK  9 active torsions:
REMARK  status: ('A' for Active; 'I' for Inactive)
REMARK    1  A    between atoms: C_2  and  C_3
REMARK    2  A    between atoms: C_3  and  N_4
REMARK    3  A    between atoms: C_5  and  O_7
REMARK    4  A    between atoms: O_7  and  C_8
REMARK    5  A    between atoms: C_8  and  C_9
REMARK    6  A    between atoms: N_15  and  CA_16
REMARK    7  A    between atoms: CA_16  and  CB_17
REMARK    8  A    between atoms: CA_16  and  C_24
REMARK    9  A    between atoms: CB_17  and  CG_18
REMARK                            x       y       z     vdW  Elec       q    Type
REMARK                         _______ _______ _______ _____ _____    ______ ____
ROOT
ATOM      1  O   UNK A   0       4.349   2.469 -24.022  0.00  0.00    -0.274 OA
ATOM      2  C   UNK A   0       3.996   3.378 -23.160  0.00  0.00    +0.231 C 
ATOM      3  N   PHE A   1       2.916   3.219 -22.456  0.00  0.00    -0.306 N 
ATOM      4  H   PHE A   1       2.648   3.907 -21.804  0.00  0.00    +0.149 HD
ENDROOT
BRANCH   3   5
ATOM      5  CA  PHE A   1       2.188   2.153 -22.612  0.00  0.00    +0.123 C 
BRANCH   5   6
ATOM      6  C   PHE A   1       2.568   1.026 -22.087  0.00  0.00    +0.062 C 
ATOM      7  OXT PHE A   1       2.583  -0.055 -22.809  0.00  0.00    -0.548 OA
ATOM      8  O   PHE A   1       2.932   0.980 -20.840  0.00  0.00    -0.548 OA
ENDBRANCH   5   6
BRANCH   5   9
ATOM      9  CB  PHE A   1       1.081   2.215 -23.291  0.00  0.00    +0.063 C 
BRANCH   9  10
ATOM     10  CG  PHE A   1       0.007   2.694 -22.740  0.00  0.00    -0.045 A 
ATOM     11  CD2 PHE A   1      -0.674   1.974 -21.902  0.00  0.00    +0.004 A 
ATOM     12  CE2 PHE A   1      -1.749   2.452 -21.350  0.00  0.00    +0.000 A 
ATOM     13  CZ  PHE A   1      -2.145   3.659 -21.639  0.00  0.00    +0.000 A 
ATOM     14  CE1 PHE A   1      -1.464   4.380 -22.478  0.00  0.00    +0.000 A 
ATOM     15  CD1 PHE A   1      -0.389   3.902 -23.029  0.00  0.00    +0.004 A 
ENDBRANCH   9  10
ENDBRANCH   5   9
ENDBRANCH   3   5
BRANCH   2  16
ATOM     16  C   UNK A   0       4.724   4.444 -23.005  0.00  0.00    +0.203 C 
BRANCH  16  17
ATOM     17  N   UNK A   0       4.157   5.593 -22.793  0.00  0.00    -0.273 N 
ATOM     18  H   UNK A   0       3.281   5.792 -23.195  0.00  0.00    +0.153 HD
ATOM     19  C   UNK A   0       4.747   6.481 -22.050  0.00  0.00    +0.401 C 
ATOM     20  O   UNK A   0       5.904   6.220 -21.518  0.00  0.00    -0.226 OA
BRANCH  19  21
ATOM     21  O   UNK A   0       4.179   7.631 -21.838  0.00  0.00    -0.446 OA
BRANCH  21  22
ATOM     22  C   UNK A   0       4.847   8.730 -22.031  0.00  0.00    +0.269 C 
BRANCH  22  23
ATOM     23  C   UNK A   0       4.310   9.876 -21.737  0.00  0.00    -0.010 A 
ATOM     24  C   UNK A   0       4.299  10.292 -20.502  0.00  0.00    +0.007 A 
ATOM     25  C   UNK A   0       3.762  11.439 -20.211  0.00  0.00    +0.000 A 
ATOM     26  C   UNK A   0       3.236  12.172 -21.146  0.00  0.00    +0.000 A 
ATOM     27  C   UNK A   0       3.248  11.756 -22.381  0.00  0.00    +0.000 A 
ATOM     28  C   UNK A   0       3.785  10.609 -22.672  0.00  0.00    +0.007 A 
ENDBRANCH  22  23
ENDBRANCH  21  22
ENDBRANCH  19  21
ENDBRANCH  16  17
ENDBRANCH   2  16
TORSDOF 9
ENDMDL
