MODEL 1
REMARK VINA RESULT:   -11.040      0.000      0.000
REMARK INTER + INTRA:         -12.009
REMARK INTER:                 -11.900
REMARK INTRA:                  -0.109
REMARK UNBOUND:                -0.001
REMARK  Name = ZINC000096316346
REMARK  4 active torsions:
REMARK  status: ('A' for Active; 'I' for Inactive)
REMARK    1  A    between atoms: C_1  and  O_2
REMARK    2  A    between atoms: O_2  and  C_3
REMARK    3  A    between atoms: C_11  and  O_12
REMARK    4  A    between atoms: N_19  and  C_20
REMARK                            x       y       z     vdW  Elec       q    Type
REMARK                         _______ _______ _______ _____ _____    ______ ____
ROOT
ATOM      1  C   UNL     1       1.246   1.756 -22.190  0.00  0.00    +0.162 A 
ATOM      2  C   UNL     1       1.792   2.119 -23.271  0.00  0.00    +0.050 A 
ATOM      3  C   UNL     1       1.120   2.676 -24.168  0.00  0.00    +0.008 A 
ATOM      4  C   UNL     1      -0.104   2.875 -23.992  0.00  0.00    -0.034 A 
ATOM      5  C   UNL     1      -0.669   2.523 -22.924  0.00  0.00    +0.015 A 
ATOM      6  C   UNL     1      -1.892   2.725 -22.755  0.00  0.00    +0.070 C 
ATOM      7  C   UNL     1      -3.273   2.900 -22.447  0.00  0.00    +0.071 C 
ATOM      8  C   UNL     1      -4.058   3.526 -23.439  0.00  0.00    +0.133 C 
ATOM      9  N   UNL     1      -3.414   3.918 -24.632  0.00  0.00    +0.239 N 
ATOM     10  H   UNL     1      -3.935   4.374 -25.380  0.00  0.00    +0.204 HD
ATOM     11  C   UNL     1      -4.037   4.478 -25.560  0.00  0.00    +0.191 C 
ATOM     12  C   UNL     1      -2.018   3.644 -24.729  0.00  0.00    +0.096 C 
ATOM     13  C   UNL     1      -2.568   3.282 -23.649  0.00  0.00    -0.010 C 
ATOM     14  C   UNL     1      -3.804   3.484 -23.474  0.00  0.00    +0.000 C 
ATOM     15  C   UNL     1      -4.354   3.128 -22.406  0.00  0.00    +0.135 C 
ATOM     16 CL   UNL     1      -5.577   3.330 -22.238  0.00  0.00    -0.115 Cl
ATOM     17  C   UNL     1      -3.677   2.564 -21.498  0.00  0.00    +0.178 C 
ATOM     18  C   UNL     1      -2.454   2.363 -21.668  0.00  0.00    +0.219 C 
ATOM     19  O   UNL     1      -1.169   1.814 -21.099  0.00  0.00    -0.481 OA
ATOM     20  C   UNL     1      -0.795   3.444 -24.903  0.00  0.00    +0.094 C 
ATOM     21  C   UNL     1       0.007   1.960 -22.018  0.00  0.00    +0.167 A 
ENDROOT
BRANCH   1  23
ATOM     22  C   UNL     1       3.058   0.746 -21.562  0.00  0.00    +0.277 C 
ATOM     23  O   UNL     1       1.922   1.199 -21.297  0.00  0.00    -0.491 OA
ENDBRANCH   1  23
BRANCH  17  24
ATOM     24  O   UNL     1      -4.229   2.209 -20.431  0.00  0.00    -0.386 OA
ATOM     25  H   UNL     1      -3.598   2.289 -19.699  0.00  0.00    +0.210 HD
ENDBRANCH  17  24
TORSDOF 2
ENDMDL
MODEL 2
REMARK VINA RESULT:   -10.936      2.143      4.852
REMARK INTER + INTRA:         -11.896
REMARK INTER:                 -11.769
REMARK INTRA:                  -0.127
REMARK UNBOUND:                -0.001
REMARK  Name = ZINC000096316346
REMARK  4 active torsions:
REMARK  status: ('A' for Active; 'I' for Inactive)
REMARK    1  A    between atoms: C_1  and  O_2
REMARK    2  A    between atoms: O_2  and  C_3
REMARK    3  A    between atoms: C_11  and  O_12
REMARK    4  A    between atoms: N_19  and  C_20
REMARK                            x       y       z     vdW  Elec       q    Type
REMARK                         _______ _______ _______ _____ _____    ______ ____
ROOT
ATOM      1  C   UNL     1      -4.547   3.401 -22.456  0.00  0.00    +0.162 A 
ATOM      2  C   UNL     1      -4.816   3.875 -23.597  0.00  0.00    +0.050 A 
ATOM      3  C   UNL     1      -3.932   3.946 -24.480  0.00  0.00    +0.008 A 
ATOM      4  C   UNL     1      -2.771   3.544 -24.229  0.00  0.00    -0.034 A 
ATOM      5  C   UNL     1      -2.482   3.069 -23.100  0.00  0.00    +0.015 A 
ATOM      6  C   UNL     1      -1.322   2.669 -22.858  0.00  0.00    +0.070 C 
ATOM      7  C   UNL     1      -0.040   2.184 -22.463  0.00  0.00    +0.071 C 
ATOM      8  C   UNL     1       0.978   2.251 -23.437  0.00  0.00    +0.133 C 
ATOM      9  N   UNL     1       0.643   2.786 -24.699  0.00  0.00    +0.239 N 
ATOM     10  H   UNL     1       1.342   2.857 -25.438  0.00  0.00    +0.204 HD
ATOM     11  C   UNL     1       1.486   2.881 -25.617  0.00  0.00    +0.191 C 
ATOM     12  C   UNL     1      -0.706   3.214 -24.878  0.00  0.00    +0.096 C 
ATOM     13  C   UNL     1      -0.434   2.739 -23.737  0.00  0.00    -0.010 C 
ATOM     14  C   UNL     1       0.738   2.334 -23.487  0.00  0.00    +0.000 C 
ATOM     15  C   UNL     1       1.012   1.862 -22.359  0.00  0.00    +0.135 C 
ATOM     16 CL   UNL     1       2.172   1.463 -22.117  0.00  0.00    -0.115 Cl
ATOM     17  C   UNL     1       0.120   1.789 -21.465  0.00  0.00    +0.178 C 
ATOM     18  C   UNL     1      -1.040   2.189 -21.709  0.00  0.00    +0.219 C 
ATOM     19  O   UNL     1      -2.445   2.389 -21.198  0.00  0.00    -0.481 OA
ATOM     20  C   UNL     1      -1.865   3.615 -25.126  0.00  0.00    +0.094 C 
ATOM     21  C   UNL     1      -3.373   2.996 -22.208  0.00  0.00    +0.167 A 
ENDROOT
BRANCH   1  23
ATOM     22  C   UNL     1      -6.463   2.645 -21.776  0.00  0.00    +0.277 C 
ATOM     23  O   UNL     1      -5.435   3.332 -21.577  0.00  0.00    -0.491 OA
ENDBRANCH   1  23
BRANCH  17  24
ATOM     24  O   UNL     1       0.397   1.317 -20.338  0.00  0.00    -0.386 OA
ATOM     25  H   UNL     1       1.359   1.325 -20.214  0.00  0.00    +0.210 HD
ENDBRANCH  17  24
TORSDOF 2
ENDMDL
MODEL 3
REMARK VINA RESULT:   -10.926      1.957      2.937
REMARK INTER + INTRA:         -11.886
REMARK INTER:                 -11.772
REMARK INTRA:                  -0.114
REMARK UNBOUND:                -0.001
REMARK  Name = ZINC000096316346
REMARK  4 active torsions:
REMARK  status: ('A' for Active; 'I' for Inactive)
REMARK    1  A    between atoms: C_1  and  O_2
REMARK    2  A    between atoms: O_2  and  C_3
REMARK    3  A    between atoms: C_11  and  O_12
REMARK    4  A    between atoms: N_19  and  C_20
REMARK                            x       y       z     vdW  Elec       q    Type
REMARK                         _______ _______ _______ _____ _____    ______ ____
ROOT
ATOM      1  C   UNL     1       1.395   1.829 -22.701  0.00  0.00    +0.162 A 
ATOM      2  C   UNL     1       1.198   1.584 -21.475  0.00  0.00    +0.050 A 
ATOM      3  C   UNL     1       0.065   1.745 -20.969  0.00  0.00    +0.008 A 
ATOM      4  C   UNL     1      -0.881   2.152 -21.682  0.00  0.00    -0.034 A 
ATOM      5  C   UNL     1      -0.708   2.402 -22.904  0.00  0.00    +0.015 A 
ATOM      6  C   UNL     1      -1.657   2.808 -23.609  0.00  0.00    +0.070 C 
ATOM      7  C   UNL     1      -2.657   3.275 -24.513  0.00  0.00    +0.071 C 
ATOM      8  C   UNL     1      -3.946   3.466 -23.971  0.00  0.00    +0.133 C 
ATOM      9  N   UNL     1      -4.128   3.182 -22.601  0.00  0.00    +0.239 N 
ATOM     10  H   UNL     1      -5.040   3.304 -22.160  0.00  0.00    +0.204 HD
ATOM     11  C   UNL     1      -5.239   3.325 -22.043  0.00  0.00    +0.191 C 
ATOM     12  C   UNL     1      -2.986   2.725 -21.881  0.00  0.00    +0.096 C 
ATOM     13  C   UNL     1      -2.792   2.971 -23.107  0.00  0.00    -0.010 C 
ATOM     14  C   UNL     1      -3.749   3.382 -23.825  0.00  0.00    +0.000 C 
ATOM     15  C   UNL     1      -3.563   3.627 -25.039  0.00  0.00    +0.135 C 
ATOM     16 CL   UNL     1      -4.513   4.033 -25.744  0.00  0.00    -0.115 Cl
ATOM     17  C   UNL     1      -2.419   3.465 -25.554  0.00  0.00    +0.178 C 
ATOM     18  C   UNL     1      -1.470   3.059 -24.847  0.00  0.00    +0.219 C 
ATOM     19  O   UNL     1      -0.012   2.679 -24.780  0.00  0.00    -0.481 OA
ATOM     20  C   UNL     1      -2.039   2.318 -21.171  0.00  0.00    +0.094 C 
ATOM     21  C   UNL     1       0.434   2.240 -23.417  0.00  0.00    +0.167 A 
ENDROOT
BRANCH   1  23
ATOM     22  C   UNL     1       3.274   0.750 -22.786  0.00  0.00    +0.277 C 
ATOM     23  O   UNL     1       2.529   1.666 -23.203  0.00  0.00    -0.491 OA
ENDBRANCH   1  23
BRANCH  17  24
ATOM     24  O   UNL     1      -2.236   3.711 -26.769  0.00  0.00    -0.386 OA
ATOM     25  H   UNL     1      -3.092   3.860 -27.200  0.00  0.00    +0.210 HD
ENDBRANCH  17  24
TORSDOF 2
ENDMDL
MODEL 4
REMARK VINA RESULT:   -10.555      2.882      5.698
REMARK INTER + INTRA:         -11.481
REMARK INTER:                 -11.382
REMARK INTRA:                  -0.100
REMARK UNBOUND:                -0.001
REMARK  Name = ZINC000096316346
REMARK  4 active torsions:
REMARK  status: ('A' for Active; 'I' for Inactive)
REMARK    1  A    between atoms: C_1  and  O_2
REMARK    2  A    between atoms: O_2  and  C_3
REMARK    3  A    between atoms: C_11  and  O_12
REMARK    4  A    between atoms: N_19  and  C_20
REMARK                            x       y       z     vdW  Elec       q    Type
REMARK                         _______ _______ _______ _____ _____    ______ ____
ROOT
ATOM      1  C   UNL     1      -3.977   3.713 -23.596  0.00  0.00    +0.162 A 
ATOM      2  C   UNL     1      -4.318   3.260 -22.466  0.00  0.00    +0.050 A 
ATOM      3  C   UNL     1      -3.472   2.734 -21.710  0.00  0.00    +0.008 A 
ATOM      4  C   UNL     1      -2.276   2.655 -22.076  0.00  0.00    -0.034 A 
ATOM      5  C   UNL     1      -1.914   3.099 -23.197  0.00  0.00    +0.015 A 
ATOM      6  C   UNL     1      -0.719   3.018 -23.557  0.00  0.00    +0.070 C 
ATOM      7  C   UNL     1       0.609   2.982 -24.076  0.00  0.00    +0.071 C 
ATOM      8  C   UNL     1       1.587   2.394 -23.246  0.00  0.00    +0.133 C 
ATOM      9  N   UNL     1       1.170   1.900 -21.992  0.00  0.00    +0.239 N 
ATOM     10  H   UNL     1       1.836   1.466 -21.355  0.00  0.00    +0.204 HD
ATOM     11  C   UNL     1       1.973   1.364 -21.197  0.00  0.00    +0.191 C 
ATOM     12  C   UNL     1      -0.213   2.039 -21.674  0.00  0.00    +0.096 C 
ATOM     13  C   UNL     1       0.132   2.492 -22.804  0.00  0.00    -0.010 C 
ATOM     14  C   UNL     1       1.339   2.411 -23.172  0.00  0.00    +0.000 C 
ATOM     15  C   UNL     1       1.686   2.858 -24.289  0.00  0.00    +0.135 C 
ATOM     16 CL   UNL     1       2.881   2.776 -24.648  0.00  0.00    -0.115 Cl
ATOM     17  C   UNL     1       0.832   3.390 -25.056  0.00  0.00    +0.178 C 
ATOM     18  C   UNL     1      -0.363   3.471 -24.695  0.00  0.00    +0.219 C 
ATOM     19  O   UNL     1      -1.762   3.921 -25.037  0.00  0.00    -0.481 OA
ATOM     20  C   UNL     1      -1.408   2.119 -21.309  0.00  0.00    +0.094 C 
ATOM     21  C   UNL     1      -2.767   3.631 -23.962  0.00  0.00    +0.167 A 
ENDROOT
BRANCH   1  23
ATOM     22  C   UNL     1      -5.110   3.704 -25.445  0.00  0.00    +0.277 C 
ATOM     23  O   UNL     1      -4.827   4.239 -24.349  0.00  0.00    -0.491 OA
ENDBRANCH   1  23
BRANCH  17  24
ATOM     24  O   UNL     1       1.182   3.836 -26.173  0.00  0.00    -0.386 OA
ATOM     25  H   UNL     1       0.740   3.332 -26.874  0.00  0.00    +0.210 HD
ENDBRANCH  17  24
TORSDOF 2
ENDMDL
MODEL 5
REMARK VINA RESULT:   -10.444      3.317      5.961
REMARK INTER + INTRA:         -11.361
REMARK INTER:                 -11.238
REMARK INTRA:                  -0.123
REMARK UNBOUND:                -0.001
REMARK  Name = ZINC000096316346
REMARK  4 active torsions:
REMARK  status: ('A' for Active; 'I' for Inactive)
REMARK    1  A    between atoms: C_1  and  O_2
REMARK    2  A    between atoms: O_2  and  C_3
REMARK    3  A    between atoms: C_11  and  O_12
REMARK    4  A    between atoms: N_19  and  C_20
REMARK                            x       y       z     vdW  Elec       q    Type
REMARK                         _______ _______ _______ _____ _____    ______ ____
ROOT
ATOM      1  C   UNL     1      -1.737   3.320 -23.299  0.00  0.00    +0.162 A 
ATOM      2  C   UNL     1      -1.753   4.579 -23.418  0.00  0.00    +0.050 A 
ATOM      3  C   UNL     1      -0.686   5.232 -23.406  0.00  0.00    +0.008 A 
ATOM      4  C   UNL     1       0.406   4.633 -23.276  0.00  0.00    -0.034 A 
ATOM      5  C   UNL     1       0.447   3.380 -23.156  0.00  0.00    +0.015 A 
ATOM      6  C   UNL     1       1.541   2.789 -23.026  0.00  0.00    +0.070 C 
ATOM      7  C   UNL     1       2.722   2.005 -22.872  0.00  0.00    +0.071 C 
ATOM      8  C   UNL     1       3.942   2.714 -22.855  0.00  0.00    +0.133 C 
ATOM      9  N   UNL     1       3.885   4.117 -22.990  0.00  0.00    +0.239 N 
ATOM     10  H   UNL     1       4.738   4.676 -22.984  0.00  0.00    +0.204 HD
ATOM     11  C   UNL     1       4.921   4.819 -22.985  0.00  0.00    +0.191 C 
ATOM     12  C   UNL     1       2.591   4.698 -23.133  0.00  0.00    +0.096 C 
ATOM     13  C   UNL     1       2.611   3.438 -23.014  0.00  0.00    -0.010 C 
ATOM     14  C   UNL     1       3.715   2.836 -22.882  0.00  0.00    +0.000 C 
ATOM     15  C   UNL     1       3.740   1.589 -22.763  0.00  0.00    +0.135 C 
ATOM     16 CL   UNL     1       4.835   0.999 -22.633  0.00  0.00    -0.115 Cl
ATOM     17  C   UNL     1       2.663   0.926 -22.775  0.00  0.00    +0.178 C 
ATOM     18  C   UNL     1       1.569   1.519 -22.905  0.00  0.00    +0.219 C 
ATOM     19  O   UNL     1       0.068   1.402 -22.996  0.00  0.00    -0.481 OA
ATOM     20  C   UNL     1       1.499   5.294 -23.263  0.00  0.00    +0.094 C 
ATOM     21  C   UNL     1      -0.630   2.719 -23.167  0.00  0.00    +0.167 A 
ENDROOT
BRANCH   1  23
ATOM     22  C   UNL     1      -3.723   2.958 -22.508  0.00  0.00    +0.277 C 
ATOM     23  O   UNL     1      -2.807   2.671 -23.311  0.00  0.00    -0.491 OA
ENDBRANCH   1  23
BRANCH  17  24
ATOM     24  O   UNL     1       2.691  -0.321 -22.656  0.00  0.00    -0.386 OA
ATOM     25  H   UNL     1       3.504  -0.664 -23.057  0.00  0.00    +0.210 HD
ENDBRANCH  17  24
TORSDOF 2
ENDMDL
MODEL 6
REMARK VINA RESULT:    -8.991      3.513      6.380
REMARK INTER + INTRA:          -9.781
REMARK INTER:                  -9.667
REMARK INTRA:                  -0.114
REMARK UNBOUND:                -0.001
REMARK  Name = ZINC000096316346
REMARK  4 active torsions:
REMARK  status: ('A' for Active; 'I' for Inactive)
REMARK    1  A    between atoms: C_1  and  O_2
REMARK    2  A    between atoms: O_2  and  C_3
REMARK    3  A    between atoms: C_11  and  O_12
REMARK    4  A    between atoms: N_19  and  C_20
REMARK                            x       y       z     vdW  Elec       q    Type
REMARK                         _______ _______ _______ _____ _____    ______ ____
ROOT
ATOM      1  C   UNL     1      -1.550   3.924 -23.548  0.00  0.00    +0.162 A 
ATOM      2  C   UNL     1      -2.152   2.916 -23.077  0.00  0.00    +0.050 A 
ATOM      3  C   UNL     1      -1.514   2.005 -22.505  0.00  0.00    +0.008 A 
ATOM      4  C   UNL     1      -0.269   2.092 -22.397  0.00  0.00    -0.034 A 
ATOM      5  C   UNL     1       0.352   3.086 -22.858  0.00  0.00    +0.015 A 
ATOM      6  C   UNL     1       1.594   3.167 -22.747  0.00  0.00    +0.070 C 
ATOM      7  C   UNL     1       3.005   3.371 -22.683  0.00  0.00    +0.071 C 
ATOM      8  C   UNL     1       3.751   2.359 -22.042  0.00  0.00    +0.133 C 
ATOM      9  N   UNL     1       3.046   1.250 -21.530  0.00  0.00    +0.239 N 
ATOM     10  H   UNL     1       3.539   0.492 -21.058  0.00  0.00    +0.204 HD
ATOM     11  C   UNL     1       3.633   0.311 -20.949  0.00  0.00    +0.191 C 
ATOM     12  C   UNL     1       1.631   1.250 -21.706  0.00  0.00    +0.096 C 
ATOM     13  C   UNL     1       2.237   2.257 -22.175  0.00  0.00    -0.010 C 
ATOM     14  C   UNL     1       3.494   2.343 -22.066  0.00  0.00    +0.000 C 
ATOM     15  C   UNL     1       4.098   3.338 -22.529  0.00  0.00    +0.135 C 
ATOM     16 CL   UNL     1       5.341   3.417 -22.418  0.00  0.00    -0.115 Cl
ATOM     17  C   UNL     1       3.456   4.261 -23.108  0.00  0.00    +0.178 C 
ATOM     18  C   UNL     1       2.213   4.179 -23.218  0.00  0.00    +0.219 C 
ATOM     19  O   UNL     1       0.941   4.815 -23.721  0.00  0.00    -0.481 OA
ATOM     20  C   UNL     1       0.387   1.165 -21.814  0.00  0.00    +0.094 C 
ATOM     21  C   UNL     1      -0.291   4.007 -23.436  0.00  0.00    +0.167 A 
ENDROOT
BRANCH   1  23
ATOM     22  C   UNL     1      -3.221   4.555 -24.777  0.00  0.00    +0.277 C 
ATOM     23  O   UNL     1      -2.192   4.833 -24.119  0.00  0.00    -0.491 OA
ENDBRANCH   1  23
BRANCH  17  24
ATOM     24  O   UNL     1       4.063   5.254 -23.570  0.00  0.00    -0.386 OA
ATOM     25  H   UNL     1       3.458   5.774 -24.122  0.00  0.00    +0.210 HD
ENDBRANCH  17  24
TORSDOF 2
ENDMDL
