MODEL 1
REMARK VINA RESULT:    -9.771      0.000      0.000
REMARK INTER + INTRA:         -13.928
REMARK INTER:                 -13.226
REMARK INTRA:                  -0.702
REMARK UNBOUND:                -1.301
REMARK  Name = ZINC000014959367
REMARK  8 active torsions:
REMARK  status: ('A' for Active; 'I' for Inactive)
REMARK    1  A    between atoms: C_1  and  O_2
REMARK    2  A    between atoms: O_2  and  C_3
REMARK    3  A    between atoms: C_5  and  C_6
REMARK    4  A    between atoms: C_15  and  C_16
REMARK    5  A    between atoms: C_19  and  O_20
REMARK    6  A    between atoms: C_21  and  O_22
REMARK    7  A    between atoms: O_22  and  C_23
REMARK    8  A    between atoms: C_27  and  O_28
REMARK                            x       y       z     vdW  Elec       q    Type
REMARK                         _______ _______ _______ _____ _____    ______ ____
ROOT
ATOM      1  C   UNL     1       1.869   3.413 -22.784  0.00  0.00    +0.221 C 
ATOM      2  O   UNL     1       1.380   4.599 -22.994  0.00  0.00    -0.455 OA
ATOM      3  C   UNL     1       0.084   4.515 -22.938  0.00  0.00    +0.316 C 
ATOM      4  C   UNL     1      -0.229   3.277 -22.694  0.00  0.00    +0.160 C 
ATOM      5  C   UNL     1      -1.223   2.460 -22.508  0.00  0.00    +0.221 C 
ATOM      6  O   UNL     1      -0.734   1.275 -22.297  0.00  0.00    -0.455 OA
ATOM      7  C   UNL     1       0.562   1.358 -22.353  0.00  0.00    +0.316 C 
ATOM      8  O   UNL     1       1.399   0.377 -22.192  0.00  0.00    -0.250 OA
ATOM      9  O   UNL     1      -0.752   5.497 -23.099  0.00  0.00    -0.250 OA
ATOM     10  C   UNL     1       0.875   2.596 -22.598  0.00  0.00    +0.160 C 
ENDROOT
BRANCH   5  11
ATOM     11  C   UNL     1      -2.484   2.775 -22.529  0.00  0.00    -0.003 A 
ATOM     12  C   UNL     1      -3.177   2.753 -21.430  0.00  0.00    +0.011 A 
ATOM     13  C   UNL     1      -4.439   3.067 -21.451  0.00  0.00    +0.049 A 
ATOM     14  C   UNL     1      -5.006   3.404 -22.572  0.00  0.00    +0.158 A 
ATOM     15  C   UNL     1      -4.312   3.426 -23.671  0.00  0.00    +0.162 A 
ATOM     16  C   UNL     1      -3.051   3.111 -23.649  0.00  0.00    +0.056 A 
BRANCH  15  17
ATOM     17  O   UNL     1      -4.879   3.762 -24.792  0.00  0.00    -0.491 OA
ATOM     18  C   UNL     1      -4.382   3.350 -25.920  0.00  0.00    +0.277 C 
ENDBRANCH  15  17
BRANCH  14  19
ATOM     19  O   UNL     1      -6.268   3.719 -22.593  0.00  0.00    -0.503 OA
ATOM     20  H   UNL     1      -6.893   3.125 -22.961  0.00  0.00    +0.292 HD
ENDBRANCH  14  19
ENDBRANCH   5  11
BRANCH   1  23
ATOM     21  C   UNL     1       4.874   2.103 -21.744  0.00  0.00    +0.162 A 
ATOM     22  C   UNL     1       3.614   2.418 -21.766  0.00  0.00    +0.056 A 
ATOM     23  C   UNL     1       3.130   3.099 -22.762  0.00  0.00    -0.003 A 
ATOM     24  C   UNL     1       3.907   3.465 -23.738  0.00  0.00    +0.011 A 
ATOM     25  C   UNL     1       5.169   3.151 -23.716  0.00  0.00    +0.049 A 
ATOM     26  C   UNL     1       5.652   2.470 -22.720  0.00  0.00    +0.158 A 
BRANCH  21  28
ATOM     27  C   UNL     1       4.937   0.212 -20.524  0.00  0.00    +0.277 C 
ATOM     28  O   UNL     1       5.357   1.422 -20.748  0.00  0.00    -0.491 OA
ENDBRANCH  21  28
BRANCH  26  29
ATOM     29  O   UNL     1       6.914   2.155 -22.698  0.00  0.00    -0.503 OA
ATOM     30  H   UNL     1       7.173   1.254 -22.702  0.00  0.00    +0.292 HD
ENDBRANCH  26  29
ENDBRANCH   1  23
TORSDOF 6
ENDMDL
MODEL 2
REMARK VINA RESULT:    -9.747      0.067      8.178
REMARK INTER + INTRA:         -13.897
REMARK INTER:                 -13.251
REMARK INTRA:                  -0.646
REMARK UNBOUND:                -1.301
REMARK  Name = ZINC000014959367
REMARK  8 active torsions:
REMARK  status: ('A' for Active; 'I' for Inactive)
REMARK    1  A    between atoms: C_1  and  O_2
REMARK    2  A    between atoms: O_2  and  C_3
REMARK    3  A    between atoms: C_5  and  C_6
REMARK    4  A    between atoms: C_15  and  C_16
REMARK    5  A    between atoms: C_19  and  O_20
REMARK    6  A    between atoms: C_21  and  O_22
REMARK    7  A    between atoms: O_22  and  C_23
REMARK    8  A    between atoms: C_27  and  O_28
REMARK                            x       y       z     vdW  Elec       q    Type
REMARK                         _______ _______ _______ _____ _____    ______ ____
ROOT
ATOM      1  C   UNL     1      -1.244   2.438 -22.461  0.00  0.00    +0.221 C 
ATOM      2  O   UNL     1      -0.748   1.260 -22.229  0.00  0.00    -0.455 OA
ATOM      3  C   UNL     1       0.546   1.345 -22.307  0.00  0.00    +0.316 C 
ATOM      4  C   UNL     1       0.852   2.578 -22.587  0.00  0.00    +0.160 C 
ATOM      5  C   UNL     1       1.841   3.393 -22.807  0.00  0.00    +0.221 C 
ATOM      6  O   UNL     1       1.344   4.571 -23.039  0.00  0.00    -0.455 OA
ATOM      7  C   UNL     1       0.050   4.486 -22.962  0.00  0.00    +0.316 C 
ATOM      8  O   UNL     1      -0.792   5.461 -23.134  0.00  0.00    -0.250 OA
ATOM      9  O   UNL     1       1.389   0.370 -22.135  0.00  0.00    -0.250 OA
ATOM     10  C   UNL     1      -0.255   3.253 -22.682  0.00  0.00    +0.160 C 
ENDROOT
BRANCH   5  11
ATOM     11  C   UNL     1       3.102   3.082 -22.798  0.00  0.00    -0.003 A 
ATOM     12  C   UNL     1       3.870   3.452 -23.780  0.00  0.00    +0.011 A 
ATOM     13  C   UNL     1       5.133   3.141 -23.770  0.00  0.00    +0.049 A 
ATOM     14  C   UNL     1       5.627   2.461 -22.778  0.00  0.00    +0.158 A 
ATOM     15  C   UNL     1       4.859   2.092 -21.796  0.00  0.00    +0.162 A 
ATOM     16  C   UNL     1       3.597   2.402 -21.806  0.00  0.00    +0.056 A 
BRANCH  15  17
ATOM     17  O   UNL     1       5.353   1.412 -20.804  0.00  0.00    -0.491 OA
ATOM     18  C   UNL     1       4.922   0.209 -20.563  0.00  0.00    +0.277 C 
ENDBRANCH  15  17
BRANCH  14  19
ATOM     19  O   UNL     1       6.890   2.151 -22.768  0.00  0.00    -0.503 OA
ATOM     20  H   UNL     1       7.224   1.527 -23.383  0.00  0.00    +0.292 HD
ENDBRANCH  14  19
ENDBRANCH   5  11
BRANCH   1  23
ATOM     21  C   UNL     1      -4.347   3.395 -23.596  0.00  0.00    +0.162 A 
ATOM     22  C   UNL     1      -3.085   3.084 -23.585  0.00  0.00    +0.056 A 
ATOM     23  C   UNL     1      -2.506   2.749 -22.471  0.00  0.00    -0.003 A 
ATOM     24  C   UNL     1      -3.189   2.724 -21.365  0.00  0.00    +0.011 A 
ATOM     25  C   UNL     1      -4.452   3.034 -21.375  0.00  0.00    +0.049 A 
ATOM     26  C   UNL     1      -5.030   3.370 -22.490  0.00  0.00    +0.158 A 
BRANCH  21  28
ATOM     27  C   UNL     1      -4.416   3.350 -25.846  0.00  0.00    +0.277 C 
ATOM     28  O   UNL     1      -4.925   3.730 -24.711  0.00  0.00    -0.491 OA
ENDBRANCH  21  28
BRANCH  26  29
ATOM     29  O   UNL     1      -6.293   3.680 -22.500  0.00  0.00    -0.503 OA
ATOM     30  H   UNL     1      -6.898   3.202 -21.967  0.00  0.00    +0.292 HD
ENDBRANCH  26  29
ENDBRANCH   1  23
TORSDOF 6
ENDMDL
MODEL 3
REMARK VINA RESULT:    -9.220      0.981      2.144
REMARK INTER + INTRA:         -13.217
REMARK INTER:                 -12.488
REMARK INTRA:                  -0.729
REMARK UNBOUND:                -1.301
REMARK  Name = ZINC000014959367
REMARK  8 active torsions:
REMARK  status: ('A' for Active; 'I' for Inactive)
REMARK    1  A    between atoms: C_1  and  O_2
REMARK    2  A    between atoms: O_2  and  C_3
REMARK    3  A    between atoms: C_5  and  C_6
REMARK    4  A    between atoms: C_15  and  C_16
REMARK    5  A    between atoms: C_19  and  O_20
REMARK    6  A    between atoms: C_21  and  O_22
REMARK    7  A    between atoms: O_22  and  C_23
REMARK    8  A    between atoms: C_27  and  O_28
REMARK                            x       y       z     vdW  Elec       q    Type
REMARK                         _______ _______ _______ _____ _____    ______ ____
ROOT
ATOM      1  C   UNL     1       1.971   2.449 -22.534  0.00  0.00    +0.221 C 
ATOM      2  O   UNL     1       1.319   1.417 -22.089  0.00  0.00    -0.455 OA
ATOM      3  C   UNL     1       0.054   1.711 -22.083  0.00  0.00    +0.316 C 
ATOM      4  C   UNL     1      -0.078   2.927 -22.523  0.00  0.00    +0.160 C 
ATOM      5  C   UNL     1      -0.942   3.861 -22.792  0.00  0.00    +0.221 C 
ATOM      6  O   UNL     1      -0.290   4.894 -23.236  0.00  0.00    -0.455 OA
ATOM      7  C   UNL     1       0.975   4.599 -23.243  0.00  0.00    +0.316 C 
ATOM      8  O   UNL     1       1.940   5.383 -23.624  0.00  0.00    -0.250 OA
ATOM      9  O   UNL     1      -0.911   0.928 -21.702  0.00  0.00    -0.250 OA
ATOM     10  C   UNL     1       1.107   3.383 -22.802  0.00  0.00    +0.160 C 
ENDROOT
BRANCH   5  11
ATOM     11  C   UNL     1      -2.230   3.776 -22.641  0.00  0.00    -0.003 A 
ATOM     12  C   UNL     1      -2.742   3.708 -21.448  0.00  0.00    +0.011 A 
ATOM     13  C   UNL     1      -4.031   3.623 -21.298  0.00  0.00    +0.049 A 
ATOM     14  C   UNL     1      -4.807   3.606 -22.341  0.00  0.00    +0.158 A 
ATOM     15  C   UNL     1      -4.295   3.674 -23.534  0.00  0.00    +0.162 A 
ATOM     16  C   UNL     1      -3.007   3.759 -23.684  0.00  0.00    +0.056 A 
BRANCH  15  17
ATOM     17  O   UNL     1      -5.071   3.656 -24.577  0.00  0.00    -0.491 OA
ATOM     18  C   UNL     1      -4.604   3.269 -25.727  0.00  0.00    +0.277 C 
ENDBRANCH  15  17
BRANCH  14  19
ATOM     19  O   UNL     1      -6.096   3.521 -22.191  0.00  0.00    -0.503 OA
ATOM     20  H   UNL     1      -6.549   2.745 -22.459  0.00  0.00    +0.292 HD
ENDBRANCH  14  19
ENDBRANCH   5  11
BRANCH   1  23
ATOM     21  C   UNL     1       5.311   2.820 -21.801  0.00  0.00    +0.162 A 
ATOM     22  C   UNL     1       4.022   2.735 -21.652  0.00  0.00    +0.056 A 
ATOM     23  C   UNL     1       3.259   2.535 -22.684  0.00  0.00    -0.003 A 
ATOM     24  C   UNL     1       3.784   2.419 -23.868  0.00  0.00    +0.011 A 
ATOM     25  C   UNL     1       5.073   2.505 -24.018  0.00  0.00    +0.049 A 
ATOM     26  C   UNL     1       5.836   2.705 -22.985  0.00  0.00    +0.158 A 
BRANCH  21  28
ATOM     27  C   UNL     1       6.690   4.157 -20.627  0.00  0.00    +0.277 C 
ATOM     28  O   UNL     1       6.073   3.021 -20.768  0.00  0.00    -0.491 OA
ENDBRANCH  21  28
BRANCH  26  29
ATOM     29  O   UNL     1       7.125   2.790 -23.135  0.00  0.00    -0.503 OA
ATOM     30  H   UNL     1       7.584   2.137 -23.625  0.00  0.00    +0.292 HD
ENDBRANCH  26  29
ENDBRANCH   1  23
TORSDOF 6
ENDMDL
MODEL 4
REMARK VINA RESULT:    -9.220      0.977      8.043
REMARK INTER + INTRA:         -13.216
REMARK INTER:                 -12.472
REMARK INTRA:                  -0.744
REMARK UNBOUND:                -1.301
REMARK  Name = ZINC000014959367
REMARK  8 active torsions:
REMARK  status: ('A' for Active; 'I' for Inactive)
REMARK    1  A    between atoms: C_1  and  O_2
REMARK    2  A    between atoms: O_2  and  C_3
REMARK    3  A    between atoms: C_5  and  C_6
REMARK    4  A    between atoms: C_15  and  C_16
REMARK    5  A    between atoms: C_19  and  O_20
REMARK    6  A    between atoms: C_21  and  O_22
REMARK    7  A    between atoms: O_22  and  C_23
REMARK    8  A    between atoms: C_27  and  O_28
REMARK                            x       y       z     vdW  Elec       q    Type
REMARK                         _______ _______ _______ _____ _____    ______ ____
ROOT
ATOM      1  C   UNL     1      -0.926   3.838 -22.815  0.00  0.00    +0.221 C 
ATOM      2  O   UNL     1      -0.271   4.872 -23.252  0.00  0.00    -0.455 OA
ATOM      3  C   UNL     1       0.994   4.577 -23.252  0.00  0.00    +0.316 C 
ATOM      4  C   UNL     1       1.124   3.360 -22.815  0.00  0.00    +0.160 C 
ATOM      5  C   UNL     1       1.986   2.425 -22.545  0.00  0.00    +0.221 C 
ATOM      6  O   UNL     1       1.331   1.391 -22.108  0.00  0.00    -0.455 OA
ATOM      7  C   UNL     1       0.066   1.685 -22.108  0.00  0.00    +0.316 C 
ATOM      8  O   UNL     1      -0.902   0.901 -21.736  0.00  0.00    -0.250 OA
ATOM      9  O   UNL     1       1.962   5.362 -23.624  0.00  0.00    -0.250 OA
ATOM     10  C   UNL     1      -0.064   2.903 -22.545  0.00  0.00    +0.160 C 
ENDROOT
BRANCH   5  11
ATOM     11  C   UNL     1       3.274   2.510 -22.688  0.00  0.00    -0.003 A 
ATOM     12  C   UNL     1       3.808   2.378 -23.866  0.00  0.00    +0.011 A 
ATOM     13  C   UNL     1       5.098   2.464 -24.008  0.00  0.00    +0.049 A 
ATOM     14  C   UNL     1       5.853   2.681 -22.972  0.00  0.00    +0.158 A 
ATOM     15  C   UNL     1       5.319   2.814 -21.794  0.00  0.00    +0.162 A 
ATOM     16  C   UNL     1       4.030   2.728 -21.652  0.00  0.00    +0.056 A 
BRANCH  15  17
ATOM     17  O   UNL     1       6.074   3.032 -20.758  0.00  0.00    -0.491 OA
ATOM     18  C   UNL     1       6.697   4.166 -20.636  0.00  0.00    +0.277 C 
ENDBRANCH  15  17
BRANCH  14  19
ATOM     19  O   UNL     1       7.143   2.767 -23.114  0.00  0.00    -0.503 OA
ATOM     20  H   UNL     1       7.618   2.067 -23.517  0.00  0.00    +0.292 HD
ENDBRANCH  14  19
ENDBRANCH   5  11
BRANCH   1  23
ATOM     21  C   UNL     1      -4.272   3.626 -23.579  0.00  0.00    +0.162 A 
ATOM     22  C   UNL     1      -2.983   3.712 -23.720  0.00  0.00    +0.056 A 
ATOM     23  C   UNL     1      -2.214   3.753 -22.673  0.00  0.00    -0.003 A 
ATOM     24  C   UNL     1      -2.735   3.708 -21.482  0.00  0.00    +0.011 A 
ATOM     25  C   UNL     1      -4.025   3.622 -21.340  0.00  0.00    +0.049 A 
ATOM     26  C   UNL     1      -4.793   3.582 -22.388  0.00  0.00    +0.158 A 
BRANCH  21  28
ATOM     27  C   UNL     1      -4.528   3.349 -25.798  0.00  0.00    +0.277 C 
ATOM     28  O   UNL     1      -5.040   3.585 -24.627  0.00  0.00    -0.491 OA
ENDBRANCH  21  28
BRANCH  26  29
ATOM     29  O   UNL     1      -6.083   3.496 -22.246  0.00  0.00    -0.503 OA
ATOM     30  H   UNL     1      -6.554   2.796 -22.653  0.00  0.00    +0.292 HD
ENDBRANCH  26  29
ENDBRANCH   1  23
TORSDOF 6
ENDMDL
MODEL 5
REMARK VINA RESULT:    -8.636      2.200      4.083
REMARK INTER + INTRA:         -12.462
REMARK INTER:                 -11.075
REMARK INTRA:                  -1.386
REMARK UNBOUND:                -1.301
REMARK  Name = ZINC000014959367
REMARK  8 active torsions:
REMARK  status: ('A' for Active; 'I' for Inactive)
REMARK    1  A    between atoms: C_1  and  O_2
REMARK    2  A    between atoms: O_2  and  C_3
REMARK    3  A    between atoms: C_5  and  C_6
REMARK    4  A    between atoms: C_15  and  C_16
REMARK    5  A    between atoms: C_19  and  O_20
REMARK    6  A    between atoms: C_21  and  O_22
REMARK    7  A    between atoms: O_22  and  C_23
REMARK    8  A    between atoms: C_27  and  O_28
REMARK                            x       y       z     vdW  Elec       q    Type
REMARK                         _______ _______ _______ _____ _____    ______ ____
ROOT
ATOM      1  C   UNL     1       4.333   3.366 -23.097  0.00  0.00    +0.221 C 
ATOM      2  O   UNL     1       3.997   2.178 -23.502  0.00  0.00    -0.455 OA
ATOM      3  C   UNL     1       2.736   2.200 -23.813  0.00  0.00    +0.316 C 
ATOM      4  C   UNL     1       2.290   3.403 -23.600  0.00  0.00    +0.160 C 
ATOM      5  C   UNL     1       1.235   4.160 -23.660  0.00  0.00    +0.221 C 
ATOM      6  O   UNL     1       1.571   5.349 -23.255  0.00  0.00    -0.455 OA
ATOM      7  C   UNL     1       2.832   5.326 -22.944  0.00  0.00    +0.316 C 
ATOM      8  O   UNL     1       3.528   6.330 -22.498  0.00  0.00    -0.250 OA
ATOM      9  O   UNL     1       2.040   1.196 -24.259  0.00  0.00    -0.250 OA
ATOM     10  C   UNL     1       3.278   4.124 -23.157  0.00  0.00    +0.160 C 
ENDROOT
BRANCH   5  11
ATOM     11  C   UNL     1       0.053   3.793 -24.057  0.00  0.00    -0.003 A 
ATOM     12  C   UNL     1      -0.237   3.797 -25.324  0.00  0.00    +0.011 A 
ATOM     13  C   UNL     1      -1.420   3.429 -25.720  0.00  0.00    +0.049 A 
ATOM     14  C   UNL     1      -2.311   3.058 -24.849  0.00  0.00    +0.158 A 
ATOM     15  C   UNL     1      -2.020   3.055 -23.582  0.00  0.00    +0.162 A 
ATOM     16  C   UNL     1      -0.838   3.422 -23.186  0.00  0.00    +0.056 A 
BRANCH  15  17
ATOM     17  O   UNL     1      -2.911   2.684 -22.710  0.00  0.00    -0.491 OA
ATOM     18  C   UNL     1      -3.077   3.371 -21.619  0.00  0.00    +0.277 C 
ENDBRANCH  15  17
BRANCH  14  19
ATOM     19  O   UNL     1      -3.494   2.690 -25.245  0.00  0.00    -0.503 OA
ATOM     20  H   UNL     1      -4.191   3.316 -25.285  0.00  0.00    +0.292 HD
ENDBRANCH  14  19
ENDBRANCH   5  11
BRANCH   1  23
ATOM     21  C   UNL     1       7.553   4.573 -23.163  0.00  0.00    +0.162 A 
ATOM     22  C   UNL     1       6.371   4.205 -23.558  0.00  0.00    +0.056 A 
ATOM     23  C   UNL     1       5.515   3.734 -22.701  0.00  0.00    -0.003 A 
ATOM     24  C   UNL     1       5.841   3.629 -21.447  0.00  0.00    +0.011 A 
ATOM     25  C   UNL     1       7.024   3.997 -21.050  0.00  0.00    +0.049 A 
ATOM     26  C   UNL     1       7.879   4.469 -21.909  0.00  0.00    +0.158 A 
BRANCH  21  28
ATOM     27  C   UNL     1       8.288   4.756 -25.283  0.00  0.00    +0.277 C 
ATOM     28  O   UNL     1       8.408   5.045 -24.021  0.00  0.00    -0.491 OA
ENDBRANCH  21  28
BRANCH  26  29
ATOM     29  O   UNL     1       9.062   4.837 -21.512  0.00  0.00    -0.503 OA
ATOM     30  H   UNL     1       9.736   5.005 -22.141  0.00  0.00    +0.292 HD
ENDBRANCH  26  29
ENDBRANCH   1  23
TORSDOF 6
ENDMDL
MODEL 6
REMARK VINA RESULT:    -8.426      1.324      3.113
REMARK INTER + INTRA:         -12.190
REMARK INTER:                 -12.091
REMARK INTRA:                  -0.099
REMARK UNBOUND:                -1.301
REMARK  Name = ZINC000014959367
REMARK  8 active torsions:
REMARK  status: ('A' for Active; 'I' for Inactive)
REMARK    1  A    between atoms: C_1  and  O_2
REMARK    2  A    between atoms: O_2  and  C_3
REMARK    3  A    between atoms: C_5  and  C_6
REMARK    4  A    between atoms: C_15  and  C_16
REMARK    5  A    between atoms: C_19  and  O_20
REMARK    6  A    between atoms: C_21  and  O_22
REMARK    7  A    between atoms: O_22  and  C_23
REMARK    8  A    between atoms: C_27  and  O_28
REMARK                            x       y       z     vdW  Elec       q    Type
REMARK                         _______ _______ _______ _____ _____    ______ ____
ROOT
ATOM      1  C   UNL     1       2.049   2.632 -22.705  0.00  0.00    +0.221 C 
ATOM      2  O   UNL     1       1.315   1.564 -22.606  0.00  0.00    -0.455 OA
ATOM      3  C   UNL     1       0.151   1.826 -23.122  0.00  0.00    +0.316 C 
ATOM      4  C   UNL     1       0.164   3.057 -23.540  0.00  0.00    +0.160 C 
ATOM      5  C   UNL     1      -0.547   3.980 -24.117  0.00  0.00    +0.221 C 
ATOM      6  O   UNL     1       0.187   5.048 -24.215  0.00  0.00    -0.455 OA
ATOM      7  C   UNL     1       1.351   4.786 -23.700  0.00  0.00    +0.316 C 
ATOM      8  O   UNL     1       2.353   5.610 -23.616  0.00  0.00    -0.250 OA
ATOM      9  O   UNL     1      -0.851   1.002 -23.205  0.00  0.00    -0.250 OA
ATOM     10  C   UNL     1       1.338   3.555 -23.282  0.00  0.00    +0.160 C 
ENDROOT
BRANCH   5  11
ATOM     11  C   UNL     1      -1.774   3.855 -24.523  0.00  0.00    -0.003 A 
ATOM     12  C   UNL     1      -2.022   3.589 -25.772  0.00  0.00    +0.011 A 
ATOM     13  C   UNL     1      -3.251   3.465 -26.178  0.00  0.00    +0.049 A 
ATOM     14  C   UNL     1      -4.232   3.606 -25.336  0.00  0.00    +0.158 A 
ATOM     15  C   UNL     1      -3.984   3.872 -24.088  0.00  0.00    +0.162 A 
ATOM     16  C   UNL     1      -2.755   3.996 -23.682  0.00  0.00    +0.056 A 
BRANCH  15  17
ATOM     17  O   UNL     1      -4.964   4.013 -23.245  0.00  0.00    -0.491 OA
ATOM     18  C   UNL     1      -4.975   3.327 -22.141  0.00  0.00    +0.277 C 
ENDBRANCH  15  17
BRANCH  14  19
ATOM     19  O   UNL     1      -5.461   3.482 -25.742  0.00  0.00    -0.503 OA
ATOM     20  H   UNL     1      -5.785   2.642 -26.004  0.00  0.00    +0.292 HD
ENDBRANCH  14  19
ENDBRANCH   5  11
BRANCH   1  23
ATOM     21  C   UNL     1       5.327   3.655 -22.536  0.00  0.00    +0.162 A 
ATOM     22  C   UNL     1       4.099   3.530 -22.942  0.00  0.00    +0.056 A 
ATOM     23  C   UNL     1       3.276   2.756 -22.298  0.00  0.00    -0.003 A 
ATOM     24  C   UNL     1       3.682   2.106 -21.248  0.00  0.00    +0.011 A 
ATOM     25  C   UNL     1       4.911   2.231 -20.842  0.00  0.00    +0.049 A 
ATOM     26  C   UNL     1       5.733   3.006 -21.486  0.00  0.00    +0.158 A 
BRANCH  21  28
ATOM     27  C   UNL     1       6.997   3.919 -24.023  0.00  0.00    +0.277 C 
ATOM     28  O   UNL     1       6.149   4.430 -23.180  0.00  0.00    -0.491 OA
ENDBRANCH  21  28
BRANCH  26  29
ATOM     29  O   UNL     1       6.963   3.130 -21.079  0.00  0.00    -0.503 OA
ATOM     30  H   UNL     1       7.669   2.856 -21.630  0.00  0.00    +0.292 HD
ENDBRANCH  26  29
ENDBRANCH   1  23
TORSDOF 6
ENDMDL
MODEL 7
REMARK VINA RESULT:    -8.416      1.375      7.786
REMARK INTER + INTRA:         -12.178
REMARK INTER:                 -11.886
REMARK INTRA:                  -0.291
REMARK UNBOUND:                -1.301
REMARK  Name = ZINC000014959367
REMARK  8 active torsions:
REMARK  status: ('A' for Active; 'I' for Inactive)
REMARK    1  A    between atoms: C_1  and  O_2
REMARK    2  A    between atoms: O_2  and  C_3
REMARK    3  A    between atoms: C_5  and  C_6
REMARK    4  A    between atoms: C_15  and  C_16
REMARK    5  A    between atoms: C_19  and  O_20
REMARK    6  A    between atoms: C_21  and  O_22
REMARK    7  A    between atoms: O_22  and  C_23
REMARK    8  A    between atoms: C_27  and  O_28
REMARK                            x       y       z     vdW  Elec       q    Type
REMARK                         _______ _______ _______ _____ _____    ______ ____
ROOT
ATOM      1  C   UNL     1      -0.274   4.018 -23.874  0.00  0.00    +0.221 C 
ATOM      2  O   UNL     1       0.433   5.103 -23.987  0.00  0.00    -0.455 OA
ATOM      3  C   UNL     1       1.616   4.866 -23.505  0.00  0.00    +0.316 C 
ATOM      4  C   UNL     1       1.642   3.633 -23.093  0.00  0.00    +0.160 C 
ATOM      5  C   UNL     1       2.390   2.724 -22.540  0.00  0.00    +0.221 C 
ATOM      6  O   UNL     1       1.683   1.639 -22.427  0.00  0.00    -0.455 OA
ATOM      7  C   UNL     1       0.500   1.876 -22.909  0.00  0.00    +0.316 C 
ATOM      8  O   UNL     1      -0.485   1.030 -22.969  0.00  0.00    -0.250 OA
ATOM      9  O   UNL     1       2.601   5.712 -23.445  0.00  0.00    -0.250 OA
ATOM     10  C   UNL     1       0.474   3.109 -23.321  0.00  0.00    +0.160 C 
ENDROOT
BRANCH   5  11
ATOM     11  C   UNL     1       3.625   2.875 -22.167  0.00  0.00    -0.003 A 
ATOM     12  C   UNL     1       4.054   2.289 -21.089  0.00  0.00    +0.011 A 
ATOM     13  C   UNL     1       5.291   2.440 -20.715  0.00  0.00    +0.049 A 
ATOM     14  C   UNL     1       6.097   3.177 -21.420  0.00  0.00    +0.158 A 
ATOM     15  C   UNL     1       5.668   3.763 -22.499  0.00  0.00    +0.162 A 
ATOM     16  C   UNL     1       4.432   3.612 -22.871  0.00  0.00    +0.056 A 
BRANCH  15  17
ATOM     17  O   UNL     1       6.474   4.500 -23.203  0.00  0.00    -0.491 OA
ATOM     18  C   UNL     1       7.168   3.967 -24.164  0.00  0.00    +0.277 C 
ENDBRANCH  15  17
BRANCH  14  19
ATOM     19  O   UNL     1       7.334   3.328 -21.047  0.00  0.00    -0.503 OA
ATOM     20  H   UNL     1       8.029   2.995 -21.581  0.00  0.00    +0.292 HD
ENDBRANCH  14  19
ENDBRANCH   5  11
BRANCH   1  23
ATOM     21  C   UNL     1      -3.702   3.784 -23.742  0.00  0.00    +0.162 A 
ATOM     22  C   UNL     1      -2.466   3.935 -23.370  0.00  0.00    +0.056 A 
ATOM     23  C   UNL     1      -1.509   3.867 -24.247  0.00  0.00    -0.003 A 
ATOM     24  C   UNL     1      -1.788   3.649 -25.498  0.00  0.00    +0.011 A 
ATOM     25  C   UNL     1      -3.025   3.498 -25.871  0.00  0.00    +0.049 A 
ATOM     26  C   UNL     1      -3.981   3.566 -24.993  0.00  0.00    +0.158 A 
BRANCH  21  28
ATOM     27  C   UNL     1      -4.634   3.083 -21.817  0.00  0.00    +0.277 C 
ATOM     28  O   UNL     1      -4.659   3.852 -22.864  0.00  0.00    -0.491 OA
ENDBRANCH  21  28
BRANCH  26  29
ATOM     29  O   UNL     1      -5.218   3.415 -25.366  0.00  0.00    -0.503 OA
ATOM     30  H   UNL     1      -5.413   3.017 -26.192  0.00  0.00    +0.292 HD
ENDBRANCH  26  29
ENDBRANCH   1  23
TORSDOF 6
ENDMDL
MODEL 8
REMARK VINA RESULT:    -8.061      1.518      2.687
REMARK INTER + INTRA:         -11.719
REMARK INTER:                 -11.425
REMARK INTRA:                  -0.293
REMARK UNBOUND:                -1.301
REMARK  Name = ZINC000014959367
REMARK  8 active torsions:
REMARK  status: ('A' for Active; 'I' for Inactive)
REMARK    1  A    between atoms: C_1  and  O_2
REMARK    2  A    between atoms: O_2  and  C_3
REMARK    3  A    between atoms: C_5  and  C_6
REMARK    4  A    between atoms: C_15  and  C_16
REMARK    5  A    between atoms: C_19  and  O_20
REMARK    6  A    between atoms: C_21  and  O_22
REMARK    7  A    between atoms: O_22  and  C_23
REMARK    8  A    between atoms: C_27  and  O_28
REMARK                            x       y       z     vdW  Elec       q    Type
REMARK                         _______ _______ _______ _____ _____    ______ ____
ROOT
ATOM      1  C   UNL     1       2.725   4.065 -23.060  0.00  0.00    +0.221 C 
ATOM      2  O   UNL     1       2.126   5.218 -23.064  0.00  0.00    -0.455 OA
ATOM      3  C   UNL     1       0.874   5.020 -23.349  0.00  0.00    +0.316 C 
ATOM      4  C   UNL     1       0.697   3.744 -23.522  0.00  0.00    +0.160 C 
ATOM      5  C   UNL     1      -0.185   2.832 -23.806  0.00  0.00    +0.221 C 
ATOM      6  O   UNL     1       0.414   1.679 -23.802  0.00  0.00    -0.455 OA
ATOM      7  C   UNL     1       1.666   1.877 -23.517  0.00  0.00    +0.316 C 
ATOM      8  O   UNL     1       2.583   0.960 -23.421  0.00  0.00    -0.250 OA
ATOM      9  O   UNL     1      -0.043   5.937 -23.445  0.00  0.00    -0.250 OA
ATOM     10  C   UNL     1       1.843   3.153 -23.343  0.00  0.00    +0.160 C 
ENDROOT
BRANCH   5  11
ATOM     11  C   UNL     1      -1.445   3.039 -24.049  0.00  0.00    -0.003 A 
ATOM     12  C   UNL     1      -1.821   3.441 -25.227  0.00  0.00    +0.011 A 
ATOM     13  C   UNL     1      -3.082   3.648 -25.471  0.00  0.00    +0.049 A 
ATOM     14  C   UNL     1      -3.965   3.452 -24.537  0.00  0.00    +0.158 A 
ATOM     15  C   UNL     1      -3.588   3.050 -23.359  0.00  0.00    +0.162 A 
ATOM     16  C   UNL     1      -2.328   2.843 -23.116  0.00  0.00    +0.056 A 
BRANCH  15  17
ATOM     17  O   UNL     1      -4.471   2.854 -22.426  0.00  0.00    -0.491 OA
ATOM     18  C   UNL     1      -4.407   3.533 -21.319  0.00  0.00    +0.277 C 
ENDBRANCH  15  17
BRANCH  14  19
ATOM     19  O   UNL     1      -5.226   3.659 -24.781  0.00  0.00    -0.503 OA
ATOM     20  H   UNL     1      -5.693   3.082 -25.352  0.00  0.00    +0.292 HD
ENDBRANCH  14  19
ENDBRANCH   5  11
BRANCH   1  23
ATOM     21  C   UNL     1       6.139   4.479 -23.027  0.00  0.00    +0.162 A 
ATOM     22  C   UNL     1       4.879   4.685 -23.271  0.00  0.00    +0.056 A 
ATOM     23  C   UNL     1       3.984   3.858 -22.816  0.00  0.00    -0.003 A 
ATOM     24  C   UNL     1       4.350   2.825 -22.117  0.00  0.00    +0.011 A 
ATOM     25  C   UNL     1       5.611   2.618 -21.874  0.00  0.00    +0.049 A 
ATOM     26  C   UNL     1       6.505   3.445 -22.329  0.00  0.00    +0.158 A 
BRANCH  21  28
ATOM     27  C   UNL     1       7.663   5.038 -24.588  0.00  0.00    +0.277 C 
ATOM     28  O   UNL     1       7.033   5.306 -23.482  0.00  0.00    -0.491 OA
ENDBRANCH  21  28
BRANCH  26  29
ATOM     29  O   UNL     1       7.765   3.239 -22.085  0.00  0.00    -0.503 OA
ATOM     30  H   UNL     1       8.419   3.646 -22.619  0.00  0.00    +0.292 HD
ENDBRANCH  26  29
ENDBRANCH   1  23
TORSDOF 6
ENDMDL
