MODEL 1
REMARK VINA RESULT:    -9.655      0.000      0.000
REMARK INTER + INTRA:         -11.560
REMARK INTER:                 -10.929
REMARK INTRA:                  -0.631
REMARK UNBOUND:                -0.494
REMARK  Name = ZINC000013334943
REMARK  5 active torsions:
REMARK  status: ('A' for Active; 'I' for Inactive)
REMARK    1  A    between atoms: C_1  and  O_2
REMARK    2  A    between atoms: O_2  and  C_3
REMARK    3  A    between atoms: C_5  and  O_6
REMARK    4  A    between atoms: C_9  and  C_10
REMARK    5  A    between atoms: C_12  and  C_13
REMARK                            x       y       z     vdW  Elec       q    Type
REMARK                         _______ _______ _______ _____ _____    ______ ____
ROOT
ATOM      1  C   UNL     1       2.142   1.467 -21.746  0.00  0.00    +0.130 A 
ATOM      2  C   UNL     1       2.898   1.769 -22.759  0.00  0.00    +0.092 A 
ATOM      3  C   UNL     1       2.387   2.353 -23.801  0.00  0.00    +0.134 A 
ATOM      4  C   UNL     1       1.118   2.636 -23.830  0.00  0.00    +0.101 A 
ATOM      5  C   UNL     1       0.362   2.334 -22.817  0.00  0.00    +0.142 A 
ATOM      6  O   UNL     1      -0.908   2.617 -22.846  0.00  0.00    -0.483 OA
ATOM      7  C   UNL     1      -1.419   3.201 -23.888  0.00  0.00    +0.211 C 
ATOM      8  C   UNL     1      -0.663   3.503 -24.901  0.00  0.00    +0.129 C 
ATOM      9  C   UNL     1       0.606   3.221 -24.872  0.00  0.00    +0.174 C 
ATOM     10  O   UNL     1       1.362   3.523 -25.885  0.00  0.00    -0.292 OA
ATOM     11  C   UNL     1       0.873   1.749 -21.775  0.00  0.00    +0.034 A 
ATOM     12  C   UNL     1       0.117   1.447 -20.762  0.00  0.00    +0.051 C 
ENDROOT
BRANCH   7  13
ATOM     13  C   UNL     1      -2.688   3.484 -23.917  0.00  0.00    -0.007 A 
ATOM     14  C   UNL     1      -3.448   3.161 -22.914  0.00  0.00    +0.007 A 
ATOM     15  C   UNL     1      -4.717   3.444 -22.944  0.00  0.00    +0.000 A 
ATOM     16  C   UNL     1      -5.225   4.050 -23.976  0.00  0.00    +0.000 A 
ATOM     17  C   UNL     1      -4.464   4.372 -24.979  0.00  0.00    +0.000 A 
ATOM     18  C   UNL     1      -3.195   4.090 -24.950  0.00  0.00    +0.007 A 
ENDBRANCH   7  13
BRANCH   1  20
ATOM     19  C   UNL     1       3.847   0.369 -20.767  0.00  0.00    +0.277 C 
ATOM     20  O   UNL     1       2.654   0.882 -20.704  0.00  0.00    -0.495 OA
ENDBRANCH   1  20
BRANCH   3  21
ATOM     21  O   UNL     1       3.143   2.655 -24.814  0.00  0.00    -0.506 OA
ATOM     22  H   UNL     1       4.075   2.654 -24.720  0.00  0.00    +0.292 HD
ENDBRANCH   3  21
TORSDOF 3
ENDMDL
MODEL 2
REMARK VINA RESULT:    -9.352      2.016      6.006
REMARK INTER + INTRA:         -11.212
REMARK INTER:                 -10.696
REMARK INTRA:                  -0.516
REMARK UNBOUND:                -0.494
REMARK  Name = ZINC000013334943
REMARK  5 active torsions:
REMARK  status: ('A' for Active; 'I' for Inactive)
REMARK    1  A    between atoms: C_1  and  O_2
REMARK    2  A    between atoms: O_2  and  C_3
REMARK    3  A    between atoms: C_5  and  O_6
REMARK    4  A    between atoms: C_9  and  C_10
REMARK    5  A    between atoms: C_12  and  C_13
REMARK                            x       y       z     vdW  Elec       q    Type
REMARK                         _______ _______ _______ _____ _____    ______ ____
ROOT
ATOM      1  C   UNL     1      -4.822   3.516 -22.613  0.00  0.00    +0.130 A 
ATOM      2  C   UNL     1      -5.080   3.661 -23.879  0.00  0.00    +0.092 A 
ATOM      3  C   UNL     1      -4.112   3.645 -24.746  0.00  0.00    +0.134 A 
ATOM      4  C   UNL     1      -2.885   3.485 -24.347  0.00  0.00    +0.101 A 
ATOM      5  C   UNL     1      -2.627   3.341 -23.081  0.00  0.00    +0.142 A 
ATOM      6  O   UNL     1      -1.399   3.181 -22.683  0.00  0.00    -0.483 OA
ATOM      7  C   UNL     1      -0.431   3.165 -23.549  0.00  0.00    +0.211 C 
ATOM      8  C   UNL     1      -0.690   3.309 -24.815  0.00  0.00    +0.129 C 
ATOM      9  C   UNL     1      -1.916   3.469 -25.214  0.00  0.00    +0.174 C 
ATOM     10  O   UNL     1      -2.175   3.614 -26.480  0.00  0.00    -0.292 OA
ATOM     11  C   UNL     1      -3.595   3.356 -22.214  0.00  0.00    +0.034 A 
ATOM     12  C   UNL     1      -3.336   3.212 -20.948  0.00  0.00    +0.051 C 
ENDROOT
BRANCH   7  13
ATOM     13  C   UNL     1       0.796   3.005 -23.151  0.00  0.00    -0.007 A 
ATOM     14  C   UNL     1       1.097   2.026 -22.352  0.00  0.00    +0.007 A 
ATOM     15  C   UNL     1       2.324   1.867 -21.953  0.00  0.00    +0.000 A 
ATOM     16  C   UNL     1       3.250   2.687 -22.353  0.00  0.00    +0.000 A 
ATOM     17  C   UNL     1       2.948   3.666 -23.153  0.00  0.00    +0.000 A 
ATOM     18  C   UNL     1       1.722   3.826 -23.552  0.00  0.00    +0.007 A 
ENDBRANCH   7  13
BRANCH   1  20
ATOM     19  C   UNL     1      -6.678   2.582 -21.746  0.00  0.00    +0.277 C 
ATOM     20  O   UNL     1      -5.791   3.532 -21.746  0.00  0.00    -0.495 OA
ENDBRANCH   1  20
BRANCH   3  21
ATOM     21  O   UNL     1      -4.371   3.789 -26.012  0.00  0.00    -0.506 OA
ATOM     22  H   UNL     1      -3.692   4.052 -26.602  0.00  0.00    +0.292 HD
ENDBRANCH   3  21
TORSDOF 3
ENDMDL
MODEL 3
REMARK VINA RESULT:    -9.324      1.264      2.850
REMARK INTER + INTRA:         -11.180
REMARK INTER:                 -10.555
REMARK INTRA:                  -0.625
REMARK UNBOUND:                -0.494
REMARK  Name = ZINC000013334943
REMARK  5 active torsions:
REMARK  status: ('A' for Active; 'I' for Inactive)
REMARK    1  A    between atoms: C_1  and  O_2
REMARK    2  A    between atoms: O_2  and  C_3
REMARK    3  A    between atoms: C_5  and  O_6
REMARK    4  A    between atoms: C_9  and  C_10
REMARK    5  A    between atoms: C_12  and  C_13
REMARK                            x       y       z     vdW  Elec       q    Type
REMARK                         _______ _______ _______ _____ _____    ______ ____
ROOT
ATOM      1  C   UNL     1       2.812   3.153 -23.403  0.00  0.00    +0.130 A 
ATOM      2  C   UNL     1       2.914   2.332 -22.400  0.00  0.00    +0.092 A 
ATOM      3  C   UNL     1       1.844   1.885 -21.814  0.00  0.00    +0.134 A 
ATOM      4  C   UNL     1       0.671   2.260 -22.231  0.00  0.00    +0.101 A 
ATOM      5  C   UNL     1       0.568   3.081 -23.233  0.00  0.00    +0.142 A 
ATOM      6  O   UNL     1      -0.606   3.455 -23.650  0.00  0.00    -0.483 OA
ATOM      7  C   UNL     1      -1.676   3.008 -23.064  0.00  0.00    +0.211 C 
ATOM      8  C   UNL     1      -1.574   2.187 -22.061  0.00  0.00    +0.129 C 
ATOM      9  C   UNL     1      -0.401   1.813 -21.644  0.00  0.00    +0.174 C 
ATOM     10  O   UNL     1      -0.298   0.992 -20.642  0.00  0.00    -0.292 OA
ATOM     11  C   UNL     1       1.639   3.527 -23.819  0.00  0.00    +0.034 A 
ATOM     12  C   UNL     1       1.536   4.349 -24.822  0.00  0.00    +0.051 C 
ENDROOT
BRANCH   7  13
ATOM     13  C   UNL     1      -2.849   3.383 -23.480  0.00  0.00    -0.007 A 
ATOM     14  C   UNL     1      -3.879   3.287 -22.694  0.00  0.00    +0.007 A 
ATOM     15  C   UNL     1      -5.052   3.662 -23.111  0.00  0.00    +0.000 A 
ATOM     16  C   UNL     1      -5.195   4.132 -24.314  0.00  0.00    +0.000 A 
ATOM     17  C   UNL     1      -4.164   4.228 -25.101  0.00  0.00    +0.000 A 
ATOM     18  C   UNL     1      -2.991   3.853 -24.685  0.00  0.00    +0.007 A 
ENDBRANCH   7  13
BRANCH   1  20
ATOM     19  C   UNL     1       5.055   3.205 -23.589  0.00  0.00    +0.277 C 
ATOM     20  O   UNL     1       3.883   3.600 -23.989  0.00  0.00    -0.495 OA
ENDBRANCH   1  20
BRANCH   3  21
ATOM     21  O   UNL     1       1.946   1.064 -20.812  0.00  0.00    -0.506 OA
ATOM     22  H   UNL     1       1.277   1.040 -20.156  0.00  0.00    +0.292 HD
ENDBRANCH   3  21
TORSDOF 3
ENDMDL
MODEL 4
REMARK VINA RESULT:    -8.812      2.198      3.522
REMARK INTER + INTRA:         -10.594
REMARK INTER:                  -9.999
REMARK INTRA:                  -0.594
REMARK UNBOUND:                -0.494
REMARK  Name = ZINC000013334943
REMARK  5 active torsions:
REMARK  status: ('A' for Active; 'I' for Inactive)
REMARK    1  A    between atoms: C_1  and  O_2
REMARK    2  A    between atoms: O_2  and  C_3
REMARK    3  A    between atoms: C_5  and  O_6
REMARK    4  A    between atoms: C_9  and  C_10
REMARK    5  A    between atoms: C_12  and  C_13
REMARK                            x       y       z     vdW  Elec       q    Type
REMARK                         _______ _______ _______ _____ _____    ______ ____
ROOT
ATOM      1  C   UNL     1       4.438   4.176 -23.116  0.00  0.00    +0.130 A 
ATOM      2  C   UNL     1       4.907   2.965 -23.078  0.00  0.00    +0.092 A 
ATOM      3  C   UNL     1       4.097   1.958 -22.941  0.00  0.00    +0.134 A 
ATOM      4  C   UNL     1       2.817   2.163 -22.842  0.00  0.00    +0.101 A 
ATOM      5  C   UNL     1       2.348   3.374 -22.881  0.00  0.00    +0.142 A 
ATOM      6  O   UNL     1       1.067   3.579 -22.782  0.00  0.00    -0.483 OA
ATOM      7  C   UNL     1       0.257   2.572 -22.645  0.00  0.00    +0.211 C 
ATOM      8  C   UNL     1       0.726   1.360 -22.607  0.00  0.00    +0.129 C 
ATOM      9  C   UNL     1       2.006   1.156 -22.705  0.00  0.00    +0.174 C 
ATOM     10  O   UNL     1       2.475  -0.056 -22.667  0.00  0.00    -0.292 OA
ATOM     11  C   UNL     1       3.158   4.381 -23.018  0.00  0.00    +0.034 A 
ATOM     12  C   UNL     1       2.688   5.593 -23.056  0.00  0.00    +0.051 C 
ENDROOT
BRANCH   7  13
ATOM     13  C   UNL     1      -1.023   2.777 -22.547  0.00  0.00    -0.007 A 
ATOM     14  C   UNL     1      -1.649   3.439 -23.474  0.00  0.00    +0.007 A 
ATOM     15  C   UNL     1      -2.929   3.643 -23.375  0.00  0.00    +0.000 A 
ATOM     16  C   UNL     1      -3.583   3.186 -22.349  0.00  0.00    +0.000 A 
ATOM     17  C   UNL     1      -2.957   2.524 -21.422  0.00  0.00    +0.000 A 
ATOM     18  C   UNL     1      -1.678   2.319 -21.520  0.00  0.00    +0.007 A 
ENDBRANCH   7  13
BRANCH   1  20
ATOM     19  C   UNL     1       6.374   5.205 -22.602  0.00  0.00    +0.277 C 
ATOM     20  O   UNL     1       5.249   5.184 -23.253  0.00  0.00    -0.495 OA
ENDBRANCH   1  20
BRANCH   3  21
ATOM     21  O   UNL     1       4.566   0.746 -22.902  0.00  0.00    -0.506 OA
ATOM     22  H   UNL     1       4.384   0.151 -23.603  0.00  0.00    +0.292 HD
ENDBRANCH   3  21
TORSDOF 3
ENDMDL
MODEL 5
REMARK VINA RESULT:    -8.608      1.361      5.976
REMARK INTER + INTRA:         -10.360
REMARK INTER:                  -9.755
REMARK INTRA:                  -0.605
REMARK UNBOUND:                -0.494
REMARK  Name = ZINC000013334943
REMARK  5 active torsions:
REMARK  status: ('A' for Active; 'I' for Inactive)
REMARK    1  A    between atoms: C_1  and  O_2
REMARK    2  A    between atoms: O_2  and  C_3
REMARK    3  A    between atoms: C_5  and  O_6
REMARK    4  A    between atoms: C_9  and  C_10
REMARK    5  A    between atoms: C_12  and  C_13
REMARK                            x       y       z     vdW  Elec       q    Type
REMARK                         _______ _______ _______ _____ _____    ______ ____
ROOT
ATOM      1  C   UNL     1      -2.555   2.996 -23.240  0.00  0.00    +0.130 A 
ATOM      2  C   UNL     1      -2.402   3.358 -24.479  0.00  0.00    +0.092 A 
ATOM      3  C   UNL     1      -1.219   3.346 -25.018  0.00  0.00    +0.134 A 
ATOM      4  C   UNL     1      -0.190   2.972 -24.317  0.00  0.00    +0.101 A 
ATOM      5  C   UNL     1      -0.343   2.611 -23.078  0.00  0.00    +0.142 A 
ATOM      6  O   UNL     1       0.687   2.237 -22.378  0.00  0.00    -0.483 OA
ATOM      7  C   UNL     1       1.870   2.226 -22.917  0.00  0.00    +0.211 C 
ATOM      8  C   UNL     1       2.023   2.587 -24.156  0.00  0.00    +0.129 C 
ATOM      9  C   UNL     1       0.994   2.960 -24.856  0.00  0.00    +0.174 C 
ATOM     10  O   UNL     1       1.147   3.322 -26.096  0.00  0.00    -0.292 OA
ATOM     11  C   UNL     1      -1.526   2.623 -22.539  0.00  0.00    +0.034 A 
ATOM     12  C   UNL     1      -1.679   2.262 -21.300  0.00  0.00    +0.051 C 
ENDROOT
BRANCH   7  13
ATOM     13  C   UNL     1       2.899   1.852 -22.216  0.00  0.00    -0.007 A 
ATOM     14  C   UNL     1       3.970   2.587 -22.192  0.00  0.00    +0.007 A 
ATOM     15  C   UNL     1       4.999   2.213 -21.491  0.00  0.00    +0.000 A 
ATOM     16  C   UNL     1       4.957   1.104 -20.815  0.00  0.00    +0.000 A 
ATOM     17  C   UNL     1       3.886   0.368 -20.839  0.00  0.00    +0.000 A 
ATOM     18  C   UNL     1       2.857   0.742 -21.540  0.00  0.00    +0.007 A 
ENDBRANCH   7  13
BRANCH   1  20
ATOM     19  C   UNL     1      -4.695   3.699 -23.247  0.00  0.00    +0.277 C 
ATOM     20  O   UNL     1      -3.739   3.008 -22.701  0.00  0.00    -0.495 OA
ENDBRANCH   1  20
BRANCH   3  21
ATOM     21  O   UNL     1      -1.066   3.707 -26.257  0.00  0.00    -0.506 OA
ATOM     22  H   UNL     1      -0.368   4.286 -26.493  0.00  0.00    +0.292 HD
ENDBRANCH   3  21
TORSDOF 3
ENDMDL
MODEL 6
REMARK VINA RESULT:    -8.166      2.292      6.746
REMARK INTER + INTRA:          -9.854
REMARK INTER:                  -9.247
REMARK INTRA:                  -0.606
REMARK UNBOUND:                -0.494
REMARK  Name = ZINC000013334943
REMARK  5 active torsions:
REMARK  status: ('A' for Active; 'I' for Inactive)
REMARK    1  A    between atoms: C_1  and  O_2
REMARK    2  A    between atoms: O_2  and  C_3
REMARK    3  A    between atoms: C_5  and  O_6
REMARK    4  A    between atoms: C_9  and  C_10
REMARK    5  A    between atoms: C_12  and  C_13
REMARK                            x       y       z     vdW  Elec       q    Type
REMARK                         _______ _______ _______ _____ _____    ______ ____
ROOT
ATOM      1  C   UNL     1      -0.790   2.986 -24.368  0.00  0.00    +0.130 A 
ATOM      2  C   UNL     1      -1.192   2.270 -23.360  0.00  0.00    +0.092 A 
ATOM      3  C   UNL     1      -0.346   1.909 -22.441  0.00  0.00    +0.134 A 
ATOM      4  C   UNL     1       0.901   2.264 -22.531  0.00  0.00    +0.101 A 
ATOM      5  C   UNL     1       1.302   2.980 -23.539  0.00  0.00    +0.142 A 
ATOM      6  O   UNL     1       2.550   3.336 -23.628  0.00  0.00    -0.483 OA
ATOM      7  C   UNL     1       3.396   2.975 -22.710  0.00  0.00    +0.211 C 
ATOM      8  C   UNL     1       2.995   2.259 -21.702  0.00  0.00    +0.129 C 
ATOM      9  C   UNL     1       1.748   1.904 -21.612  0.00  0.00    +0.174 C 
ATOM     10  O   UNL     1       1.346   1.188 -20.604  0.00  0.00    -0.292 OA
ATOM     11  C   UNL     1       0.457   3.341 -24.458  0.00  0.00    +0.034 A 
ATOM     12  C   UNL     1       0.858   4.057 -25.466  0.00  0.00    +0.051 C 
ENDROOT
BRANCH   7  13
ATOM     13  C   UNL     1       4.643   3.330 -22.799  0.00  0.00    -0.007 A 
ATOM     14  C   UNL     1       5.584   2.455 -22.604  0.00  0.00    +0.007 A 
ATOM     15  C   UNL     1       6.831   2.811 -22.693  0.00  0.00    +0.000 A 
ATOM     16  C   UNL     1       7.137   4.042 -22.979  0.00  0.00    +0.000 A 
ATOM     17  C   UNL     1       6.196   4.917 -23.175  0.00  0.00    +0.000 A 
ATOM     18  C   UNL     1       4.949   4.562 -23.085  0.00  0.00    +0.007 A 
ENDBRANCH   7  13
BRANCH   1  20
ATOM     19  C   UNL     1      -2.877   2.962 -25.216  0.00  0.00    +0.277 C 
ATOM     20  O   UNL     1      -1.637   3.347 -25.287  0.00  0.00    -0.495 OA
ENDBRANCH   1  20
BRANCH   3  21
ATOM     21  O   UNL     1      -0.748   1.193 -21.433  0.00  0.00    -0.506 OA
ATOM     22  H   UNL     1      -0.715   1.546 -20.566  0.00  0.00    +0.292 HD
ENDBRANCH   3  21
TORSDOF 3
ENDMDL
MODEL 7
REMARK VINA RESULT:    -7.655      1.697      6.503
REMARK INTER + INTRA:          -9.268
REMARK INTER:                  -8.699
REMARK INTRA:                  -0.569
REMARK UNBOUND:                -0.494
REMARK  Name = ZINC000013334943
REMARK  5 active torsions:
REMARK  status: ('A' for Active; 'I' for Inactive)
REMARK    1  A    between atoms: C_1  and  O_2
REMARK    2  A    between atoms: O_2  and  C_3
REMARK    3  A    between atoms: C_5  and  O_6
REMARK    4  A    between atoms: C_9  and  C_10
REMARK    5  A    between atoms: C_12  and  C_13
REMARK                            x       y       z     vdW  Elec       q    Type
REMARK                         _______ _______ _______ _____ _____    ______ ____
ROOT
ATOM      1  C   UNL     1      -2.521   3.604 -25.231  0.00  0.00    +0.130 A 
ATOM      2  C   UNL     1      -3.412   3.344 -24.321  0.00  0.00    +0.092 A 
ATOM      3  C   UNL     1      -3.043   2.889 -23.161  0.00  0.00    +0.134 A 
ATOM      4  C   UNL     1      -1.782   2.693 -22.912  0.00  0.00    +0.101 A 
ATOM      5  C   UNL     1      -0.891   2.952 -23.822  0.00  0.00    +0.142 A 
ATOM      6  O   UNL     1       0.370   2.756 -23.573  0.00  0.00    -0.483 OA
ATOM      7  C   UNL     1       0.740   2.300 -22.413  0.00  0.00    +0.211 C 
ATOM      8  C   UNL     1      -0.151   2.041 -21.502  0.00  0.00    +0.129 C 
ATOM      9  C   UNL     1      -1.412   2.237 -21.752  0.00  0.00    +0.174 C 
ATOM     10  O   UNL     1      -2.303   1.977 -20.841  0.00  0.00    -0.292 OA
ATOM     11  C   UNL     1      -1.261   3.408 -24.982  0.00  0.00    +0.034 A 
ATOM     12  C   UNL     1      -0.370   3.668 -25.893  0.00  0.00    +0.051 C 
ENDROOT
BRANCH   7  13
ATOM     13  C   UNL     1       2.000   2.104 -22.164  0.00  0.00    -0.007 A 
ATOM     14  C   UNL     1       2.899   2.842 -22.743  0.00  0.00    +0.007 A 
ATOM     15  C   UNL     1       4.161   2.645 -22.493  0.00  0.00    +0.000 A 
ATOM     16  C   UNL     1       4.521   1.711 -21.664  0.00  0.00    +0.000 A 
ATOM     17  C   UNL     1       3.621   0.973 -21.085  0.00  0.00    +0.000 A 
ATOM     18  C   UNL     1       2.361   1.169 -21.334  0.00  0.00    +0.007 A 
ENDBRANCH   7  13
BRANCH   1  20
ATOM     19  C   UNL     1      -3.693   3.361 -27.139  0.00  0.00    +0.277 C 
ATOM     20  O   UNL     1      -2.892   4.060 -26.392  0.00  0.00    -0.495 OA
ENDBRANCH   1  20
BRANCH   3  21
ATOM     21  O   UNL     1      -3.934   2.629 -22.251  0.00  0.00    -0.506 OA
ATOM     22  H   UNL     1      -4.491   1.881 -22.341  0.00  0.00    +0.292 HD
ENDBRANCH   3  21
TORSDOF 3
ENDMDL
MODEL 8
REMARK VINA RESULT:    -7.180      3.699      7.575
REMARK INTER + INTRA:          -8.724
REMARK INTER:                  -8.121
REMARK INTRA:                  -0.602
REMARK UNBOUND:                -0.494
REMARK  Name = ZINC000013334943
REMARK  5 active torsions:
REMARK  status: ('A' for Active; 'I' for Inactive)
REMARK    1  A    between atoms: C_1  and  O_2
REMARK    2  A    between atoms: O_2  and  C_3
REMARK    3  A    between atoms: C_5  and  O_6
REMARK    4  A    between atoms: C_9  and  C_10
REMARK    5  A    between atoms: C_12  and  C_13
REMARK                            x       y       z     vdW  Elec       q    Type
REMARK                         _______ _______ _______ _____ _____    ______ ____
ROOT
ATOM      1  C   UNL     1       1.304   3.129 -23.513  0.00  0.00    +0.130 A 
ATOM      2  C   UNL     1       1.468   1.842 -23.440  0.00  0.00    +0.092 A 
ATOM      3  C   UNL     1       2.621   1.352 -23.095  0.00  0.00    +0.134 A 
ATOM      4  C   UNL     1       3.611   2.149 -22.824  0.00  0.00    +0.101 A 
ATOM      5  C   UNL     1       3.448   3.437 -22.898  0.00  0.00    +0.142 A 
ATOM      6  O   UNL     1       4.439   4.234 -22.627  0.00  0.00    -0.483 OA
ATOM      7  C   UNL     1       5.592   3.744 -22.282  0.00  0.00    +0.211 C 
ATOM      8  C   UNL     1       5.755   2.457 -22.209  0.00  0.00    +0.129 C 
ATOM      9  C   UNL     1       4.766   1.659 -22.479  0.00  0.00    +0.174 C 
ATOM     10  O   UNL     1       4.929   0.372 -22.406  0.00  0.00    -0.292 OA
ATOM     11  C   UNL     1       2.294   3.927 -23.243  0.00  0.00    +0.034 A 
ATOM     12  C   UNL     1       2.131   5.214 -23.316  0.00  0.00    +0.051 C 
ENDROOT
BRANCH   7  13
ATOM     13  C   UNL     1       6.582   4.542 -22.011  0.00  0.00    -0.007 A 
ATOM     14  C   UNL     1       6.931   5.457 -22.864  0.00  0.00    +0.007 A 
ATOM     15  C   UNL     1       7.921   6.255 -22.593  0.00  0.00    +0.000 A 
ATOM     16  C   UNL     1       8.562   6.137 -21.468  0.00  0.00    +0.000 A 
ATOM     17  C   UNL     1       8.213   5.221 -20.615  0.00  0.00    +0.000 A 
ATOM     18  C   UNL     1       7.223   4.423 -20.886  0.00  0.00    +0.007 A 
ENDBRANCH   7  13
BRANCH   1  20
ATOM     19  C   UNL     1      -0.934   2.931 -23.657  0.00  0.00    +0.277 C 
ATOM     20  O   UNL     1       0.150   3.619 -23.858  0.00  0.00    -0.495 OA
ENDBRANCH   1  20
BRANCH   3  21
ATOM     21  O   UNL     1       2.785   0.064 -23.022  0.00  0.00    -0.506 OA
ATOM     22  H   UNL     1       3.094  -0.412 -23.767  0.00  0.00    +0.292 HD
ENDBRANCH   3  21
TORSDOF 3
ENDMDL
MODEL 9
REMARK VINA RESULT:    -6.953      4.275      6.845
REMARK INTER + INTRA:          -8.462
REMARK INTER:                  -7.969
REMARK INTRA:                  -0.494
REMARK UNBOUND:                -0.494
REMARK  Name = ZINC000013334943
REMARK  5 active torsions:
REMARK  status: ('A' for Active; 'I' for Inactive)
REMARK    1  A    between atoms: C_1  and  O_2
REMARK    2  A    between atoms: O_2  and  C_3
REMARK    3  A    between atoms: C_5  and  O_6
REMARK    4  A    between atoms: C_9  and  C_10
REMARK    5  A    between atoms: C_12  and  C_13
REMARK                            x       y       z     vdW  Elec       q    Type
REMARK                         _______ _______ _______ _____ _____    ______ ____
ROOT
ATOM      1  C   UNL     1       1.237   3.205 -23.994  0.00  0.00    +0.130 A 
ATOM      2  C   UNL     1       2.085   2.254 -24.252  0.00  0.00    +0.092 A 
ATOM      3  C   UNL     1       3.350   2.430 -24.017  0.00  0.00    +0.134 A 
ATOM      4  C   UNL     1       3.768   3.558 -23.524  0.00  0.00    +0.101 A 
ATOM      5  C   UNL     1       2.920   4.509 -23.266  0.00  0.00    +0.142 A 
ATOM      6  O   UNL     1       3.339   5.637 -22.773  0.00  0.00    -0.483 OA
ATOM      7  C   UNL     1       4.605   5.814 -22.537  0.00  0.00    +0.211 C 
ATOM      8  C   UNL     1       5.453   4.863 -22.795  0.00  0.00    +0.129 C 
ATOM      9  C   UNL     1       5.035   3.735 -23.288  0.00  0.00    +0.174 C 
ATOM     10  O   UNL     1       5.883   2.784 -23.546  0.00  0.00    -0.292 OA
ATOM     11  C   UNL     1       1.655   4.332 -23.501  0.00  0.00    +0.034 A 
ATOM     12  C   UNL     1       0.807   5.284 -23.244  0.00  0.00    +0.051 C 
ENDROOT
BRANCH   7  13
ATOM     13  C   UNL     1       5.023   6.942 -22.044  0.00  0.00    -0.007 A 
ATOM     14  C   UNL     1       6.285   7.110 -21.785  0.00  0.00    +0.007 A 
ATOM     15  C   UNL     1       6.702   8.238 -21.292  0.00  0.00    +0.000 A 
ATOM     16  C   UNL     1       5.858   9.198 -21.058  0.00  0.00    +0.000 A 
ATOM     17  C   UNL     1       4.595   9.030 -21.317  0.00  0.00    +0.000 A 
ATOM     18  C   UNL     1       4.177   7.902 -21.810  0.00  0.00    +0.007 A 
ENDBRANCH   7  13
BRANCH   1  20
ATOM     19  C   UNL     1      -0.730   2.243 -23.466  0.00  0.00    +0.277 C 
ATOM     20  O   UNL     1      -0.030   3.028 -24.230  0.00  0.00    -0.495 OA
ENDBRANCH   1  20
BRANCH   3  21
ATOM     21  O   UNL     1       4.198   1.479 -24.274  0.00  0.00    -0.506 OA
ATOM     22  H   UNL     1       3.939   0.752 -24.805  0.00  0.00    +0.292 HD
ENDBRANCH   3  21
TORSDOF 3
ENDMDL
