MODEL 1
REMARK VINA RESULT:   -10.073      0.000      0.000
REMARK INTER + INTRA:          -6.864
REMARK INTER:                 -11.651
REMARK INTRA:                   4.788
REMARK UNBOUND:                 6.154
REMARK  Name = ZINC000096316392
REMARK  9 active torsions:
REMARK  status: ('A' for Active; 'I' for Inactive)
REMARK    1  A    between atoms: C_1  and  C_2
REMARK    2  A    between atoms: C_2  and  C_3
REMARK    3  A    between atoms: C_3  and  C_4
REMARK    4  A    between atoms: C_4  and  C_5
REMARK    5  A    between atoms: C_8  and  O_9
REMARK    6  A    between atoms: O_9  and  C_10
REMARK    7  A    between atoms: N_18  and  C_19
REMARK    8  A    between atoms: C_25  and  O_26
REMARK    9  A    between atoms: O_26  and  C_27
REMARK                            x       y       z     vdW  Elec       q    Type
REMARK                         _______ _______ _______ _____ _____    ______ ____
ROOT
ATOM      1  C   UNL     1      -1.476   3.205 -23.780  0.00  0.00    +0.181 C 
ATOM      2  O   UNL     1      -1.821   3.069 -22.311  0.00  0.00    -0.473 OA
ATOM      3  C   UNL     1      -3.299   3.145 -22.031  0.00  0.00    +0.168 A 
ATOM      4  C   UNL     1      -4.215   3.114 -21.150  0.00  0.00    +0.162 A 
ATOM      5  C   UNL     1      -5.428   3.240 -21.503  0.00  0.00    +0.050 A 
ATOM      6  C   UNL     1      -5.727   3.393 -22.713  0.00  0.00    +0.008 A 
ATOM      7  C   UNL     1      -4.818   3.423 -23.584  0.00  0.00    -0.034 A 
ATOM      8  C   UNL     1      -5.118   3.579 -24.816  0.00  0.00    +0.094 C 
ATOM      9  C   UNL     1      -4.212   3.609 -25.683  0.00  0.00    +0.096 C 
ATOM     10  C   UNL     1      -2.997   3.483 -25.333  0.00  0.00    -0.007 C 
ATOM     11  C   UNL     1      -2.083   3.513 -26.212  0.00  0.00    +0.009 C 
ATOM     12  C   UNL     1      -0.879   3.390 -25.873  0.00  0.00    +0.045 C 
ATOM     13  N   UNL     1      -3.259   3.656 -26.749  0.00  0.00    +0.239 N 
ATOM     14  H   UNL     1      -3.533   3.783 -27.724  0.00  0.00    +0.204 HD
ATOM     15  C   UNL     1      -3.615   3.812 -27.943  0.00  0.00    +0.191 C 
ATOM     16  C   UNL     1      -1.896   3.520 -26.394  0.00  0.00    +0.133 C 
ATOM     17  C   UNL     1      -1.589   3.348 -25.021  0.00  0.00    +0.071 C 
ATOM     18  C   UNL     1      -3.604   3.300 -23.252  0.00  0.00    +0.016 A 
ATOM     19  C   UNL     1      -0.572   3.235 -24.651  0.00  0.00    +0.142 C 
ATOM     20  C   UNL     1      -2.701   3.330 -24.123  0.00  0.00    +0.077 C 
ENDROOT
BRANCH   4  21
ATOM     21  O   UNL     1      -3.921   2.961 -19.939  0.00  0.00    -0.491 OA
ATOM     22  C   UNL     1      -3.085   3.721 -19.393  0.00  0.00    +0.277 C 
ENDBRANCH   4  21
BRANCH  19  23
ATOM     23  O   UNL     1       0.632   3.112 -24.315  0.00  0.00    -0.495 OA
ATOM     24  C   UNL     1       1.526   3.055 -25.195  0.00  0.00    +0.276 C 
ENDBRANCH  19  23
BRANCH   1  25
ATOM     25  C   UNL     1      -0.356   3.058 -23.172  0.00  0.00    +0.057 C 
BRANCH  25  26
ATOM     26  C   UNL     1      -0.276   2.561 -22.000  0.00  0.00    +0.004 C 
BRANCH  26  28
ATOM     27  C   UNL     1       1.531   1.475 -21.442  0.00  0.00    +0.004 C 
ATOM     28  C   UNL     1       0.316   1.473 -21.789  0.00  0.00    -0.003 C 
ENDBRANCH  26  28
ENDBRANCH  25  26
ENDBRANCH   1  25
TORSDOF 5
ENDMDL
MODEL 2
REMARK VINA RESULT:    -9.654      1.862      4.369
REMARK INTER + INTRA:          -6.322
REMARK INTER:                 -10.995
REMARK INTRA:                   4.673
REMARK UNBOUND:                 6.154
REMARK  Name = ZINC000096316392
REMARK  9 active torsions:
REMARK  status: ('A' for Active; 'I' for Inactive)
REMARK    1  A    between atoms: C_1  and  C_2
REMARK    2  A    between atoms: C_2  and  C_3
REMARK    3  A    between atoms: C_3  and  C_4
REMARK    4  A    between atoms: C_4  and  C_5
REMARK    5  A    between atoms: C_8  and  O_9
REMARK    6  A    between atoms: O_9  and  C_10
REMARK    7  A    between atoms: N_18  and  C_19
REMARK    8  A    between atoms: C_25  and  O_26
REMARK    9  A    between atoms: O_26  and  C_27
REMARK                            x       y       z     vdW  Elec       q    Type
REMARK                         _______ _______ _______ _____ _____    ______ ____
ROOT
ATOM      1  C   UNL     1      -1.227   2.811 -23.307  0.00  0.00    +0.181 C 
ATOM      2  O   UNL     1      -1.292   2.969 -24.812  0.00  0.00    -0.473 OA
ATOM      3  C   UNL     1      -2.670   3.303 -25.323  0.00  0.00    +0.168 A 
ATOM      4  C   UNL     1      -3.394   3.551 -26.338  0.00  0.00    +0.162 A 
ATOM      5  C   UNL     1      -4.630   3.791 -26.181  0.00  0.00    +0.050 A 
ATOM      6  C   UNL     1      -5.141   3.786 -25.033  0.00  0.00    +0.008 A 
ATOM      7  C   UNL     1      -4.421   3.540 -24.029  0.00  0.00    -0.034 A 
ATOM      8  C   UNL     1      -4.936   3.534 -22.860  0.00  0.00    +0.094 C 
ATOM      9  C   UNL     1      -4.219   3.289 -21.860  0.00  0.00    +0.096 C 
ATOM     10  C   UNL     1      -2.981   3.048 -22.014  0.00  0.00    -0.007 C 
ATOM     11  C   UNL     1      -2.258   2.801 -21.002  0.00  0.00    +0.009 C 
ATOM     12  C   UNL     1      -1.033   2.562 -21.146  0.00  0.00    +0.045 C 
ATOM     13  N   UNL     1      -3.492   3.023 -20.657  0.00  0.00    +0.239 N 
ATOM     14  H   UNL     1      -3.935   3.026 -19.737  0.00  0.00    +0.204 HD
ATOM     15  C   UNL     1      -4.055   3.031 -19.535  0.00  0.00    +0.191 C 
ATOM     16  C   UNL     1      -2.110   2.750 -20.792  0.00  0.00    +0.133 C 
ATOM     17  C   UNL     1      -1.563   2.763 -22.099  0.00  0.00    +0.071 C 
ATOM     18  C   UNL     1      -3.188   3.299 -24.165  0.00  0.00    +0.016 A 
ATOM     19  C   UNL     1      -0.513   2.566 -22.304  0.00  0.00    +0.142 C 
ATOM     20  C   UNL     1      -2.474   3.054 -23.162  0.00  0.00    +0.077 C 
ENDROOT
BRANCH   4  21
ATOM     21  O   UNL     1      -2.888   3.558 -27.487  0.00  0.00    -0.491 OA
ATOM     22  C   UNL     1      -3.616   3.389 -28.496  0.00  0.00    +0.277 C 
ENDBRANCH   4  21
BRANCH  19  23
ATOM     23  O   UNL     1       0.712   2.326 -22.445  0.00  0.00    -0.495 OA
ATOM     24  C   UNL     1       1.287   1.521 -21.672  0.00  0.00    +0.276 C 
ENDBRANCH  19  23
BRANCH   1  25
ATOM     25  C   UNL     1      -0.034   2.605 -23.730  0.00  0.00    +0.057 C 
BRANCH  25  26
ATOM     26  C   UNL     1       0.367   3.018 -24.868  0.00  0.00    +0.004 C 
BRANCH  26  28
ATOM     27  C   UNL     1       2.213   1.981 -25.391  0.00  0.00    +0.004 C 
ATOM     28  C   UNL     1       1.589   3.055 -25.158  0.00  0.00    -0.003 C 
ENDBRANCH  26  28
ENDBRANCH  25  26
ENDBRANCH   1  25
TORSDOF 5
ENDMDL
MODEL 3
REMARK VINA RESULT:    -9.390      1.721      4.291
REMARK INTER + INTRA:          -5.981
REMARK INTER:                 -11.522
REMARK INTRA:                   5.541
REMARK UNBOUND:                 6.154
REMARK  Name = ZINC000096316392
REMARK  9 active torsions:
REMARK  status: ('A' for Active; 'I' for Inactive)
REMARK    1  A    between atoms: C_1  and  C_2
REMARK    2  A    between atoms: C_2  and  C_3
REMARK    3  A    between atoms: C_3  and  C_4
REMARK    4  A    between atoms: C_4  and  C_5
REMARK    5  A    between atoms: C_8  and  O_9
REMARK    6  A    between atoms: O_9  and  C_10
REMARK    7  A    between atoms: N_18  and  C_19
REMARK    8  A    between atoms: C_25  and  O_26
REMARK    9  A    between atoms: O_26  and  C_27
REMARK                            x       y       z     vdW  Elec       q    Type
REMARK                         _______ _______ _______ _____ _____    ______ ____
ROOT
ATOM      1  C   UNL     1      -1.841   3.117 -24.517  0.00  0.00    +0.181 C 
ATOM      2  O   UNL     1      -0.390   2.724 -24.331  0.00  0.00    -0.473 OA
ATOM      3  C   UNL     1      -0.073   2.233 -22.942  0.00  0.00    +0.168 A 
ATOM      4  C   UNL     1       0.818   1.789 -22.151  0.00  0.00    +0.162 A 
ATOM      5  C   UNL     1       0.506   1.502 -20.955  0.00  0.00    +0.050 A 
ATOM      6  C   UNL     1      -0.673   1.654 -20.549  0.00  0.00    +0.008 A 
ATOM      7  C   UNL     1      -1.554   2.095 -21.335  0.00  0.00    -0.034 A 
ATOM      8  C   UNL     1      -2.753   2.251 -20.926  0.00  0.00    +0.094 C 
ATOM      9  C   UNL     1      -3.631   2.690 -21.709  0.00  0.00    +0.096 C 
ATOM     10  C   UNL     1      -3.321   2.977 -22.907  0.00  0.00    -0.007 C 
ATOM     11  C   UNL     1      -4.209   3.421 -23.697  0.00  0.00    +0.009 C 
ATOM     12  C   UNL     1      -3.911   3.708 -24.883  0.00  0.00    +0.045 C 
ATOM     13  N   UNL     1      -4.703   3.182 -22.518  0.00  0.00    +0.239 N 
ATOM     14  H   UNL     1      -5.652   3.295 -22.159  0.00  0.00    +0.204 HD
ATOM     15  C   UNL     1      -5.864   3.314 -22.059  0.00  0.00    +0.191 C 
ATOM     16  C   UNL     1      -4.393   3.512 -23.858  0.00  0.00    +0.133 C 
ATOM     17  C   UNL     1      -3.055   3.330 -24.287  0.00  0.00    +0.071 C 
ATOM     18  C   UNL     1      -1.262   2.386 -22.530  0.00  0.00    +0.016 A 
ATOM     19  C   UNL     1      -2.721   3.556 -25.298  0.00  0.00    +0.142 C 
ATOM     20  C   UNL     1      -2.142   2.824 -23.309  0.00  0.00    +0.077 C 
ENDROOT
BRANCH   4  21
ATOM     21  O   UNL     1       1.998   1.635 -22.552  0.00  0.00    -0.491 OA
ATOM     22  C   UNL     1       2.689   0.679 -22.122  0.00  0.00    +0.277 C 
ENDBRANCH   4  21
BRANCH  19  23
ATOM     23  O   UNL     1      -2.426   3.844 -26.484  0.00  0.00    -0.495 OA
ATOM     24  C   UNL     1      -3.254   3.637 -27.405  0.00  0.00    +0.276 C 
ENDBRANCH  19  23
BRANCH   1  25
ATOM     25  C   UNL     1      -1.275   3.326 -25.650  0.00  0.00    +0.057 C 
BRANCH  25  26
ATOM     26  C   UNL     1      -0.010   3.278 -25.800  0.00  0.00    +0.004 C 
BRANCH  26  28
ATOM     27  C   UNL     1       1.677   4.458 -25.080  0.00  0.00    +0.004 C 
ATOM     28  C   UNL     1       0.684   4.324 -25.850  0.00  0.00    -0.003 C 
ENDBRANCH  26  28
ENDBRANCH  25  26
ENDBRANCH   1  25
TORSDOF 5
ENDMDL
MODEL 4
REMARK VINA RESULT:    -9.346      1.510      3.545
REMARK INTER + INTRA:          -5.923
REMARK INTER:                 -11.720
REMARK INTRA:                   5.797
REMARK UNBOUND:                 6.154
REMARK  Name = ZINC000096316392
REMARK  9 active torsions:
REMARK  status: ('A' for Active; 'I' for Inactive)
REMARK    1  A    between atoms: C_1  and  C_2
REMARK    2  A    between atoms: C_2  and  C_3
REMARK    3  A    between atoms: C_3  and  C_4
REMARK    4  A    between atoms: C_4  and  C_5
REMARK    5  A    between atoms: C_8  and  O_9
REMARK    6  A    between atoms: O_9  and  C_10
REMARK    7  A    between atoms: N_18  and  C_19
REMARK    8  A    between atoms: C_25  and  O_26
REMARK    9  A    between atoms: O_26  and  C_27
REMARK                            x       y       z     vdW  Elec       q    Type
REMARK                         _______ _______ _______ _____ _____    ______ ____
ROOT
ATOM      1  C   UNL     1      -1.577   2.575 -22.571  0.00  0.00    +0.181 C 
ATOM      2  O   UNL     1      -3.063   2.796 -22.380  0.00  0.00    -0.473 OA
ATOM      3  C   UNL     1      -3.760   3.302 -23.617  0.00  0.00    +0.168 A 
ATOM      4  C   UNL     1      -4.859   3.668 -24.141  0.00  0.00    +0.162 A 
ATOM      5  C   UNL     1      -4.881   4.040 -25.354  0.00  0.00    +0.050 A 
ATOM      6  C   UNL     1      -3.827   4.049 -26.037  0.00  0.00    +0.008 A 
ATOM      7  C   UNL     1      -2.739   3.687 -25.516  0.00  0.00    -0.034 A 
ATOM      8  C   UNL     1      -1.666   3.694 -26.207  0.00  0.00    +0.094 C 
ATOM      9  C   UNL     1      -0.582   3.333 -25.687  0.00  0.00    +0.096 C 
ATOM     10  C   UNL     1      -0.558   2.960 -24.473  0.00  0.00    -0.007 C 
ATOM     11  C   UNL     1       0.539   2.596 -23.949  0.00  0.00    +0.009 C 
ATOM     12  C   UNL     1       0.571   2.225 -22.749  0.00  0.00    +0.045 C 
ATOM     13  N   UNL     1       0.702   2.942 -25.192  0.00  0.00    +0.239 N 
ATOM     14  H   UNL     1       1.541   2.960 -25.773  0.00  0.00    +0.204 HD
ATOM     15  C   UNL     1       1.723   2.971 -25.922  0.00  0.00    +0.191 C 
ATOM     16  C   UNL     1       0.765   2.521 -23.843  0.00  0.00    +0.133 C 
ATOM     17  C   UNL     1      -0.439   2.521 -23.098  0.00  0.00    +0.071 C 
ATOM     18  C   UNL     1      -2.698   3.313 -24.309  0.00  0.00    +0.016 A 
ATOM     19  C   UNL     1      -0.491   2.214 -22.055  0.00  0.00    +0.142 C 
ATOM     20  C   UNL     1      -1.612   2.952 -23.793  0.00  0.00    +0.077 C 
ENDROOT
BRANCH   4  21
ATOM     21  O   UNL     1      -5.916   3.661 -23.461  0.00  0.00    -0.491 OA
ATOM     22  C   UNL     1      -5.898   3.250 -22.276  0.00  0.00    +0.277 C 
ENDBRANCH   4  21
BRANCH  19  23
ATOM     23  O   UNL     1      -0.455   1.844 -20.855  0.00  0.00    -0.495 OA
ATOM     24  C   UNL     1       0.630   1.474 -20.344  0.00  0.00    +0.276 C 
ENDBRANCH  19  23
BRANCH   1  25
ATOM     25  C   UNL     1      -1.823   2.252 -21.354  0.00  0.00    +0.057 C 
BRANCH  25  26
ATOM     26  C   UNL     1      -2.971   2.417 -20.823  0.00  0.00    +0.004 C 
BRANCH  26  28
ATOM     27  C   UNL     1      -3.132   4.473 -20.116  0.00  0.00    +0.004 C 
ATOM     28  C   UNL     1      -3.147   3.231 -19.883  0.00  0.00    -0.003 C 
ENDBRANCH  26  28
ENDBRANCH  25  26
ENDBRANCH   1  25
TORSDOF 5
ENDMDL
MODEL 5
REMARK VINA RESULT:    -9.308      1.193      4.328
REMARK INTER + INTRA:          -5.875
REMARK INTER:                 -11.220
REMARK INTRA:                   5.345
REMARK UNBOUND:                 6.154
REMARK  Name = ZINC000096316392
REMARK  9 active torsions:
REMARK  status: ('A' for Active; 'I' for Inactive)
REMARK    1  A    between atoms: C_1  and  C_2
REMARK    2  A    between atoms: C_2  and  C_3
REMARK    3  A    between atoms: C_3  and  C_4
REMARK    4  A    between atoms: C_4  and  C_5
REMARK    5  A    between atoms: C_8  and  O_9
REMARK    6  A    between atoms: O_9  and  C_10
REMARK    7  A    between atoms: N_18  and  C_19
REMARK    8  A    between atoms: C_25  and  O_26
REMARK    9  A    between atoms: O_26  and  C_27
REMARK                            x       y       z     vdW  Elec       q    Type
REMARK                         _______ _______ _______ _____ _____    ______ ____
ROOT
ATOM      1  C   UNL     1      -2.761   2.776 -22.839  0.00  0.00    +0.181 C 
ATOM      2  O   UNL     1      -1.666   2.387 -21.867  0.00  0.00    -0.473 OA
ATOM      3  C   UNL     1      -0.289   2.387 -22.481  0.00  0.00    +0.168 A 
ATOM      4  C   UNL     1       0.953   2.191 -22.298  0.00  0.00    +0.162 A 
ATOM      5  C   UNL     1       1.761   2.352 -23.264  0.00  0.00    +0.050 A 
ATOM      6  C   UNL     1       1.340   2.702 -24.395  0.00  0.00    +0.008 A 
ATOM      7  C   UNL     1       0.109   2.896 -24.573  0.00  0.00    -0.034 A 
ATOM      8  C   UNL     1      -0.322   3.252 -25.721  0.00  0.00    +0.094 C 
ATOM      9  C   UNL     1      -1.550   3.445 -25.898  0.00  0.00    +0.096 C 
ATOM     10  C   UNL     1      -2.360   3.284 -24.933  0.00  0.00    -0.007 C 
ATOM     11  C   UNL     1      -3.600   3.480 -25.114  0.00  0.00    +0.009 C 
ATOM     12  C   UNL     1      -4.408   3.323 -24.164  0.00  0.00    +0.045 C 
ATOM     13  N   UNL     1      -2.925   3.690 -26.206  0.00  0.00    +0.239 N 
ATOM     14  H   UNL     1      -3.236   3.974 -27.136  0.00  0.00    +0.204 HD
ATOM     15  C   UNL     1      -3.289   4.038 -27.356  0.00  0.00    +0.191 C 
ATOM     16  C   UNL     1      -3.855   3.520 -25.153  0.00  0.00    +0.133 C 
ATOM     17  C   UNL     1      -3.352   3.125 -23.889  0.00  0.00    +0.071 C 
ATOM     18  C   UNL     1      -0.711   2.740 -23.623  0.00  0.00    +0.016 A 
ATOM     19  C   UNL     1      -3.988   2.969 -23.020  0.00  0.00    +0.142 C 
ATOM     20  C   UNL     1      -1.937   2.934 -23.804  0.00  0.00    +0.077 C 
ENDROOT
BRANCH   4  21
ATOM     21  O   UNL     1       1.378   1.840 -21.169  0.00  0.00    -0.491 OA
ATOM     22  C   UNL     1       2.565   1.456 -21.036  0.00  0.00    +0.277 C 
ENDBRANCH   4  21
BRANCH  19  23
ATOM     23  O   UNL     1      -4.798   2.814 -22.073  0.00  0.00    -0.495 OA
ATOM     24  C   UNL     1      -5.989   3.190 -22.197  0.00  0.00    +0.276 C 
ENDBRANCH  19  23
BRANCH   1  25
ATOM     25  C   UNL     1      -3.351   2.549 -21.723  0.00  0.00    +0.057 C 
BRANCH  25  26
ATOM     26  C   UNL     1      -2.776   2.728 -20.598  0.00  0.00    +0.004 C 
BRANCH  26  28
ATOM     27  C   UNL     1      -3.039   4.884 -20.397  0.00  0.00    +0.004 C 
ATOM     28  C   UNL     1      -3.033   3.729 -19.884  0.00  0.00    -0.003 C 
ENDBRANCH  26  28
ENDBRANCH  25  26
ENDBRANCH   1  25
TORSDOF 5
ENDMDL
MODEL 6
REMARK VINA RESULT:    -9.107      1.852      4.250
REMARK INTER + INTRA:          -5.614
REMARK INTER:                 -10.771
REMARK INTRA:                   5.156
REMARK UNBOUND:                 6.154
REMARK  Name = ZINC000096316392
REMARK  9 active torsions:
REMARK  status: ('A' for Active; 'I' for Inactive)
REMARK    1  A    between atoms: C_1  and  C_2
REMARK    2  A    between atoms: C_2  and  C_3
REMARK    3  A    between atoms: C_3  and  C_4
REMARK    4  A    between atoms: C_4  and  C_5
REMARK    5  A    between atoms: C_8  and  O_9
REMARK    6  A    between atoms: O_9  and  C_10
REMARK    7  A    between atoms: N_18  and  C_19
REMARK    8  A    between atoms: C_25  and  O_26
REMARK    9  A    between atoms: O_26  and  C_27
REMARK                            x       y       z     vdW  Elec       q    Type
REMARK                         _______ _______ _______ _____ _____    ______ ____
ROOT
ATOM      1  C   UNL     1      -1.358   3.215 -24.100  0.00  0.00    +0.181 C 
ATOM      2  O   UNL     1      -2.788   3.588 -24.436  0.00  0.00    -0.473 OA
ATOM      3  C   UNL     1      -3.757   3.330 -23.311  0.00  0.00    +0.168 A 
ATOM      4  C   UNL     1      -4.964   3.389 -22.917  0.00  0.00    +0.162 A 
ATOM      5  C   UNL     1      -5.259   2.997 -21.746  0.00  0.00    +0.050 A 
ATOM      6  C   UNL     1      -4.369   2.554 -20.978  0.00  0.00    +0.008 A 
ATOM      7  C   UNL     1      -3.174   2.497 -21.372  0.00  0.00    -0.034 A 
ATOM      8  C   UNL     1      -2.267   2.046 -20.594  0.00  0.00    +0.094 C 
ATOM      9  C   UNL     1      -1.076   1.990 -20.987  0.00  0.00    +0.096 C 
ATOM     10  C   UNL     1      -0.778   2.381 -22.158  0.00  0.00    -0.007 C 
ATOM     11  C   UNL     1       0.426   2.323 -22.553  0.00  0.00    +0.009 C 
ATOM     12  C   UNL     1       0.730   2.708 -23.710  0.00  0.00    +0.045 C 
ATOM     13  N   UNL     1       0.308   1.883 -21.335  0.00  0.00    +0.239 N 
ATOM     14  H   UNL     1       1.008   1.518 -20.688  0.00  0.00    +0.204 HD
ATOM     15  C   UNL     1       1.155   1.431 -20.526  0.00  0.00    +0.191 C 
ATOM     16  C   UNL     1       0.675   2.310 -22.633  0.00  0.00    +0.133 C 
ATOM     17  C   UNL     1      -0.350   2.805 -23.476  0.00  0.00    +0.071 C 
ATOM     18  C   UNL     1      -2.861   2.882 -22.534  0.00  0.00    +0.016 A 
ATOM     19  C   UNL     1      -0.166   3.157 -24.489  0.00  0.00    +0.142 C 
ATOM     20  C   UNL     1      -1.669   2.824 -22.923  0.00  0.00    +0.077 C 
ENDROOT
BRANCH   4  21
ATOM     21  O   UNL     1      -5.857   3.831 -23.680  0.00  0.00    -0.491 OA
ATOM     22  C   UNL     1      -5.551   4.585 -24.636  0.00  0.00    +0.277 C 
ENDBRANCH   4  21
BRANCH  19  23
ATOM     23  O   UNL     1       0.140   3.541 -25.645  0.00  0.00    -0.495 OA
ATOM     24  C   UNL     1       1.252   4.085 -25.852  0.00  0.00    +0.276 C 
ENDBRANCH  19  23
BRANCH   1  25
ATOM     25  C   UNL     1      -1.328   3.664 -25.301  0.00  0.00    +0.057 C 
BRANCH  25  26
ATOM     26  C   UNL     1      -2.388   3.892 -25.972  0.00  0.00    +0.004 C 
BRANCH  26  28
ATOM     27  C   UNL     1      -3.685   3.487 -27.678  0.00  0.00    +0.004 C 
ATOM     28  C   UNL     1      -2.555   3.408 -27.119  0.00  0.00    -0.003 C 
ENDBRANCH  26  28
ENDBRANCH  25  26
ENDBRANCH   1  25
TORSDOF 5
ENDMDL
MODEL 7
REMARK VINA RESULT:    -8.814      1.883      5.573
REMARK INTER + INTRA:          -5.236
REMARK INTER:                  -9.956
REMARK INTRA:                   4.720
REMARK UNBOUND:                 6.154
REMARK  Name = ZINC000096316392
REMARK  9 active torsions:
REMARK  status: ('A' for Active; 'I' for Inactive)
REMARK    1  A    between atoms: C_1  and  C_2
REMARK    2  A    between atoms: C_2  and  C_3
REMARK    3  A    between atoms: C_3  and  C_4
REMARK    4  A    between atoms: C_4  and  C_5
REMARK    5  A    between atoms: C_8  and  O_9
REMARK    6  A    between atoms: O_9  and  C_10
REMARK    7  A    between atoms: N_18  and  C_19
REMARK    8  A    between atoms: C_25  and  O_26
REMARK    9  A    between atoms: O_26  and  C_27
REMARK                            x       y       z     vdW  Elec       q    Type
REMARK                         _______ _______ _______ _____ _____    ______ ____
ROOT
ATOM      1  C   UNL     1      -2.776   3.363 -24.041  0.00  0.00    +0.181 C 
ATOM      2  O   UNL     1      -1.527   3.297 -24.897  0.00  0.00    -0.473 OA
ATOM      3  C   UNL     1      -0.311   2.815 -24.149  0.00  0.00    +0.168 A 
ATOM      4  C   UNL     1       0.929   2.540 -24.206  0.00  0.00    +0.162 A 
ATOM      5  C   UNL     1       1.526   2.126 -23.165  0.00  0.00    +0.050 A 
ATOM      6  C   UNL     1       0.901   1.986 -22.085  0.00  0.00    +0.008 A 
ATOM      7  C   UNL     1      -0.327   2.259 -22.031  0.00  0.00    -0.034 A 
ATOM      8  C   UNL     1      -0.966   2.118 -20.934  0.00  0.00    +0.094 C 
ATOM      9  C   UNL     1      -2.190   2.391 -20.882  0.00  0.00    +0.096 C 
ATOM     10  C   UNL     1      -2.790   2.806 -21.922  0.00  0.00    -0.007 C 
ATOM     11  C   UNL     1      -4.027   3.080 -21.866  0.00  0.00    +0.009 C 
ATOM     12  C   UNL     1      -4.627   3.492 -22.891  0.00  0.00    +0.045 C 
ATOM     13  N   UNL     1      -3.583   2.672 -20.714  0.00  0.00    +0.239 N 
ATOM     14  H   UNL     1      -4.063   2.548 -19.823  0.00  0.00    +0.204 HD
ATOM     15  C   UNL     1      -4.156   2.513 -19.609  0.00  0.00    +0.191 C 
ATOM     16  C   UNL     1      -4.282   3.136 -21.854  0.00  0.00    +0.133 C 
ATOM     17  C   UNL     1      -3.551   3.284 -23.058  0.00  0.00    +0.071 C 
ATOM     18  C   UNL     1      -0.939   2.673 -23.057  0.00  0.00    +0.016 A 
ATOM     19  C   UNL     1      -4.000   3.634 -23.985  0.00  0.00    +0.142 C 
ATOM     20  C   UNL     1      -2.163   2.944 -23.000  0.00  0.00    +0.077 C 
ENDROOT
BRANCH   4  21
ATOM     21  O   UNL     1       1.558   2.678 -25.284  0.00  0.00    -0.491 OA
ATOM     22  C   UNL     1       2.292   1.752 -25.707  0.00  0.00    +0.277 C 
ENDBRANCH   4  21
BRANCH  19  23
ATOM     23  O   UNL     1      -4.603   4.046 -25.007  0.00  0.00    -0.495 OA
ATOM     24  C   UNL     1      -5.557   4.854 -24.891  0.00  0.00    +0.276 C 
ENDBRANCH  19  23
BRANCH   1  25
ATOM     25  C   UNL     1      -3.133   3.755 -25.209  0.00  0.00    +0.057 C 
BRANCH  25  26
ATOM     26  C   UNL     1      -2.553   3.354 -26.272  0.00  0.00    +0.004 C 
BRANCH  26  28
ATOM     27  C   UNL     1      -3.669   3.290 -28.144  0.00  0.00    +0.004 C 
ATOM     28  C   UNL     1      -2.822   3.851 -27.394  0.00  0.00    -0.003 C 
ENDBRANCH  26  28
ENDBRANCH  25  26
ENDBRANCH   1  25
TORSDOF 5
ENDMDL
MODEL 8
REMARK VINA RESULT:    -7.861      1.131      4.293
REMARK INTER + INTRA:          -4.005
REMARK INTER:                  -9.994
REMARK INTRA:                   5.988
REMARK UNBOUND:                 6.154
REMARK  Name = ZINC000096316392
REMARK  9 active torsions:
REMARK  status: ('A' for Active; 'I' for Inactive)
REMARK    1  A    between atoms: C_1  and  C_2
REMARK    2  A    between atoms: C_2  and  C_3
REMARK    3  A    between atoms: C_3  and  C_4
REMARK    4  A    between atoms: C_4  and  C_5
REMARK    5  A    between atoms: C_8  and  O_9
REMARK    6  A    between atoms: O_9  and  C_10
REMARK    7  A    between atoms: N_18  and  C_19
REMARK    8  A    between atoms: C_25  and  O_26
REMARK    9  A    between atoms: O_26  and  C_27
REMARK                            x       y       z     vdW  Elec       q    Type
REMARK                         _______ _______ _______ _____ _____    ______ ____
ROOT
ATOM      1  C   UNL     1      -2.156   3.261 -22.511  0.00  0.00    +0.181 C 
ATOM      2  O   UNL     1      -0.650   3.291 -22.359  0.00  0.00    -0.473 OA
ATOM      3  C   UNL     1       0.083   3.472 -23.663  0.00  0.00    +0.168 A 
ATOM      4  C   UNL     1       1.210   3.578 -24.241  0.00  0.00    +0.162 A 
ATOM      5  C   UNL     1       1.256   3.731 -25.500  0.00  0.00    +0.050 A 
ATOM      6  C   UNL     1       0.199   3.779 -26.176  0.00  0.00    +0.008 A 
ATOM      7  C   UNL     1      -0.917   3.674 -25.601  0.00  0.00    -0.034 A 
ATOM      8  C   UNL     1      -1.995   3.722 -26.285  0.00  0.00    +0.094 C 
ATOM      9  C   UNL     1      -3.106   3.617 -25.711  0.00  0.00    +0.096 C 
ATOM     10  C   UNL     1      -3.155   3.463 -24.451  0.00  0.00    -0.007 C 
ATOM     11  C   UNL     1      -4.280   3.357 -23.874  0.00  0.00    +0.009 C 
ATOM     12  C   UNL     1      -4.336   3.205 -22.628  0.00  0.00    +0.045 C 
ATOM     13  N   UNL     1      -4.421   3.508 -25.158  0.00  0.00    +0.239 N 
ATOM     14  H   UNL     1      -5.263   3.550 -25.733  0.00  0.00    +0.204 HD
ATOM     15  C   UNL     1      -5.445   3.562 -25.882  0.00  0.00    +0.191 C 
ATOM     16  C   UNL     1      -4.512   3.335 -23.756  0.00  0.00    +0.133 C 
ATOM     17  C   UNL     1      -3.302   3.285 -23.021  0.00  0.00    +0.071 C 
ATOM     18  C   UNL     1      -0.983   3.520 -24.348  0.00  0.00    +0.016 A 
ATOM     19  C   UNL     1      -3.270   3.156 -21.941  0.00  0.00    +0.142 C 
ATOM     20  C   UNL     1      -2.096   3.416 -23.779  0.00  0.00    +0.077 C 
ENDROOT
BRANCH   4  21
ATOM     21  O   UNL     1       2.271   3.531 -23.570  0.00  0.00    -0.491 OA
ATOM     22  C   UNL     1       3.211   2.781 -23.930  0.00  0.00    +0.277 C 
ENDBRANCH   4  21
BRANCH  19  23
ATOM     23  O   UNL     1      -3.330   3.004 -20.695  0.00  0.00    -0.495 OA
ATOM     24  C   UNL     1      -4.268   2.340 -20.189  0.00  0.00    +0.276 C 
ENDBRANCH  19  23
BRANCH   1  25
ATOM     25  C   UNL     1      -1.930   3.116 -21.256  0.00  0.00    +0.057 C 
BRANCH  25  26
ATOM     26  C   UNL     1      -0.824   2.665 -20.810  0.00  0.00    +0.004 C 
BRANCH  26  28
ATOM     27  C   UNL     1       0.732   1.167 -21.109  0.00  0.00    +0.004 C 
ATOM     28  C   UNL     1      -0.489   1.466 -20.980  0.00  0.00    -0.003 C 
ENDBRANCH  26  28
ENDBRANCH  25  26
ENDBRANCH   1  25
TORSDOF 5
ENDMDL
