MODEL 1
REMARK VINA RESULT:   -11.365      0.000      0.000
REMARK INTER + INTRA:         -12.029
REMARK INTER:                 -12.029
REMARK INTRA:                   0.000
REMARK UNBOUND:                 0.000
REMARK  Name = C[C@]12CC[C@@H]3c4ccc(O)c(Br)c4CC[C@@H]3[C@H]1CC[C@@H]2O             ZINC000105154821
REMARK  3 active torsions:
REMARK  status: ('A' for Active; 'I' for Inactive)
REMARK    1  A    between atoms: C_1  and  C_2
REMARK    2  A    between atoms: C_9  and  O_10
REMARK    3  A    between atoms: C_20  and  O_21
REMARK                            x       y       z     vdW  Elec       q    Type
REMARK                         _______ _______ _______ _____ _____    ______ ____
ROOT
ATOM      1  C   UNL     1      -4.522   3.835 -23.863  0.00  0.00    +0.014 C 
ATOM      2  C   UNL     1      -3.676   3.267 -23.055  0.00  0.00    -0.003 C 
ATOM      3  C   UNL     1      -3.165   3.610 -24.201  0.00  0.00    +0.010 C 
ATOM      4  C   UNL     1      -1.911   3.376 -24.449  0.00  0.00    +0.009 C 
ATOM      5  C   UNL     1      -1.167   2.799 -23.553  0.00  0.00    +0.023 C 
ATOM      6  C   UNL     1       0.088   2.565 -23.801  0.00  0.00    -0.040 A 
ATOM      7  C   UNL     1       0.598   2.908 -24.946  0.00  0.00    +0.008 A 
ATOM      8  C   UNL     1       1.853   2.674 -25.195  0.00  0.00    +0.047 A 
ATOM      9  C   UNL     1       2.596   2.097 -24.298  0.00  0.00    +0.131 A 
ATOM     10  C   UNL     1       2.085   1.755 -23.153  0.00  0.00    +0.063 A 
ATOM     11 BR   UNL     1       2.829   1.178 -22.256  0.00  0.00    -0.046 Br
ATOM     12  C   UNL     1       0.831   1.989 -22.904  0.00  0.00    -0.026 A 
ATOM     13  C   UNL     1       0.320   1.646 -21.758  0.00  0.00    +0.037 C 
ATOM     14  C   UNL     1      -0.934   1.880 -21.510  0.00  0.00    +0.009 C 
ATOM     15  C   UNL     1      -1.678   2.457 -22.407  0.00  0.00    +0.000 C 
ATOM     16  C   UNL     1      -4.874   3.386 -22.567  0.00  0.00    +0.121 C 
ATOM     17  C   UNL     1      -4.872   2.883 -21.368  0.00  0.00    +0.032 C 
ATOM     18  C   UNL     1      -3.671   2.453 -21.116  0.00  0.00    +0.007 C 
ATOM     19  C   UNL     1      -2.932   2.691 -22.158  0.00  0.00    +0.001 C 
ENDROOT
BRANCH   9  20
ATOM     20  O   UNL     1       3.851   1.863 -24.546  0.00  0.00    -0.506 OA
ATOM     21  H   UNL     1       4.469   2.567 -24.536  0.00  0.00    +0.292 HD
ENDBRANCH   9  20
BRANCH  16  22
ATOM     22  O   UNL     1      -5.897   3.915 -23.171  0.00  0.00    -0.391 OA
ATOM     23  H   UNL     1      -5.902   4.874 -23.021  0.00  0.00    +0.210 HD
ENDBRANCH  16  22
TORSDOF 2
ENDMDL
MODEL 2
REMARK VINA RESULT:   -11.230      1.092      2.475
REMARK INTER + INTRA:         -11.887
REMARK INTER:                 -11.887
REMARK INTRA:                   0.000
REMARK UNBOUND:                 0.000
REMARK  Name = C[C@]12CC[C@@H]3c4ccc(O)c(Br)c4CC[C@@H]3[C@H]1CC[C@@H]2O             ZINC000105154821
REMARK  3 active torsions:
REMARK  status: ('A' for Active; 'I' for Inactive)
REMARK    1  A    between atoms: C_1  and  C_2
REMARK    2  A    between atoms: C_9  and  O_10
REMARK    3  A    between atoms: C_20  and  O_21
REMARK                            x       y       z     vdW  Elec       q    Type
REMARK                         _______ _______ _______ _____ _____    ______ ____
ROOT
ATOM      1  C   UNL     1      -4.903   3.137 -21.944  0.00  0.00    +0.014 C 
ATOM      2  C   UNL     1      -3.977   3.313 -22.841  0.00  0.00    -0.003 C 
ATOM      3  C   UNL     1      -3.556   2.743 -21.750  0.00  0.00    +0.010 C 
ATOM      4  C   UNL     1      -2.306   2.406 -21.635  0.00  0.00    +0.009 C 
ATOM      5  C   UNL     1      -1.477   2.637 -22.610  0.00  0.00    +0.023 C 
ATOM      6  C   UNL     1      -0.227   2.299 -22.495  0.00  0.00    -0.040 A 
ATOM      7  C   UNL     1       0.194   1.730 -21.405  0.00  0.00    +0.008 A 
ATOM      8  C   UNL     1       1.444   1.392 -21.289  0.00  0.00    +0.047 A 
ATOM      9  C   UNL     1       2.272   1.624 -22.265  0.00  0.00    +0.131 A 
ATOM     10  C   UNL     1       1.851   2.193 -23.354  0.00  0.00    +0.063 A 
ATOM     11 BR   UNL     1       2.679   2.425 -24.329  0.00  0.00    -0.046 Br
ATOM     12  C   UNL     1       0.601   2.531 -23.470  0.00  0.00    -0.026 A 
ATOM     13  C   UNL     1       0.179   3.101 -24.560  0.00  0.00    +0.037 C 
ATOM     14  C   UNL     1      -1.071   3.438 -24.675  0.00  0.00    +0.009 C 
ATOM     15  C   UNL     1      -1.899   3.207 -23.700  0.00  0.00    +0.000 C 
ATOM     16  C   UNL     1      -5.151   3.740 -23.201  0.00  0.00    +0.121 C 
ATOM     17  C   UNL     1      -5.048   4.235 -24.399  0.00  0.00    +0.032 C 
ATOM     18  C   UNL     1      -3.811   4.114 -24.778  0.00  0.00    +0.007 C 
ATOM     19  C   UNL     1      -3.149   3.545 -23.816  0.00  0.00    +0.001 C 
ENDROOT
BRANCH   9  20
ATOM     20  O   UNL     1       3.523   1.286 -22.149  0.00  0.00    -0.506 OA
ATOM     21  H   UNL     1       4.120   1.454 -22.852  0.00  0.00    +0.292 HD
ENDBRANCH   9  20
BRANCH  16  22
ATOM     22  O   UNL     1      -6.237   3.681 -22.489  0.00  0.00    -0.391 OA
ATOM     23  H   UNL     1      -6.854   3.049 -22.890  0.00  0.00    +0.210 HD
ENDBRANCH  16  22
TORSDOF 2
ENDMDL
MODEL 3
REMARK VINA RESULT:   -11.117      2.042      6.284
REMARK INTER + INTRA:         -11.767
REMARK INTER:                 -11.767
REMARK INTRA:                   0.000
REMARK UNBOUND:                 0.000
REMARK  Name = C[C@]12CC[C@@H]3c4ccc(O)c(Br)c4CC[C@@H]3[C@H]1CC[C@@H]2O             ZINC000105154821
REMARK  3 active torsions:
REMARK  status: ('A' for Active; 'I' for Inactive)
REMARK    1  A    between atoms: C_1  and  C_2
REMARK    2  A    between atoms: C_9  and  O_10
REMARK    3  A    between atoms: C_20  and  O_21
REMARK                            x       y       z     vdW  Elec       q    Type
REMARK                         _______ _______ _______ _____ _____    ______ ____
ROOT
ATOM      1  C   UNL     1       2.073   1.267 -21.748  0.00  0.00    +0.014 C 
ATOM      2  C   UNL     1       1.379   1.852 -22.679  0.00  0.00    -0.003 C 
ATOM      3  C   UNL     1       0.692   1.551 -21.616  0.00  0.00    +0.010 C 
ATOM      4  C   UNL     1      -0.575   1.840 -21.558  0.00  0.00    +0.009 C 
ATOM      5  C   UNL     1      -1.154   2.428 -22.562  0.00  0.00    +0.023 C 
ATOM      6  C   UNL     1      -2.420   2.717 -22.505  0.00  0.00    -0.040 A 
ATOM      7  C   UNL     1      -3.106   2.417 -21.442  0.00  0.00    +0.008 A 
ATOM      8  C   UNL     1      -4.374   2.705 -21.384  0.00  0.00    +0.047 A 
ATOM      9  C   UNL     1      -4.952   3.293 -22.388  0.00  0.00    +0.131 A 
ATOM     10  C   UNL     1      -4.266   3.593 -23.450  0.00  0.00    +0.063 A 
ATOM     11 BR   UNL     1      -4.845   4.181 -24.454  0.00  0.00    -0.046 Br
ATOM     12  C   UNL     1      -3.000   3.305 -23.509  0.00  0.00    -0.026 A 
ATOM     13  C   UNL     1      -2.312   3.605 -24.571  0.00  0.00    +0.037 C 
ATOM     14  C   UNL     1      -1.046   3.316 -24.629  0.00  0.00    +0.009 C 
ATOM     15  C   UNL     1      -0.467   2.728 -23.625  0.00  0.00    +0.000 C 
ATOM     16  C   UNL     1       2.630   1.676 -22.984  0.00  0.00    +0.121 C 
ATOM     17  C   UNL     1       2.824   2.156 -24.176  0.00  0.00    +0.032 C 
ATOM     18  C   UNL     1       1.693   2.628 -24.608  0.00  0.00    +0.007 C 
ATOM     19  C   UNL     1       0.799   2.440 -23.683  0.00  0.00    +0.001 C 
ENDROOT
BRANCH   9  20
ATOM     20  O   UNL     1      -6.219   3.582 -22.330  0.00  0.00    -0.506 OA
ATOM     21  H   UNL     1      -6.559   4.052 -21.594  0.00  0.00    +0.292 HD
ENDBRANCH   9  20
BRANCH  16  22
ATOM     22  O   UNL     1       3.530   1.119 -22.229  0.00  0.00    -0.391 OA
ATOM     23  H   UNL     1       4.370   1.067 -22.711  0.00  0.00    +0.210 HD
ENDBRANCH  16  22
TORSDOF 2
ENDMDL
MODEL 4
REMARK VINA RESULT:   -10.712      1.853      5.847
REMARK INTER + INTRA:         -11.339
REMARK INTER:                 -11.339
REMARK INTRA:                   0.000
REMARK UNBOUND:                 0.000
REMARK  Name = C[C@]12CC[C@@H]3c4ccc(O)c(Br)c4CC[C@@H]3[C@H]1CC[C@@H]2O             ZINC000105154821
REMARK  3 active torsions:
REMARK  status: ('A' for Active; 'I' for Inactive)
REMARK    1  A    between atoms: C_1  and  C_2
REMARK    2  A    between atoms: C_9  and  O_10
REMARK    3  A    between atoms: C_20  and  O_21
REMARK                            x       y       z     vdW  Elec       q    Type
REMARK                         _______ _______ _______ _____ _____    ______ ____
ROOT
ATOM      1  C   UNL     1       2.814   2.268 -24.502  0.00  0.00    +0.014 C 
ATOM      2  C   UNL     1       1.953   2.099 -23.542  0.00  0.00    -0.003 C 
ATOM      3  C   UNL     1       1.456   2.657 -24.607  0.00  0.00    +0.010 C 
ATOM      4  C   UNL     1       0.200   2.991 -24.640  0.00  0.00    +0.009 C 
ATOM      5  C   UNL     1      -0.560   2.766 -23.609  0.00  0.00    +0.023 C 
ATOM      6  C   UNL     1      -1.816   3.100 -23.642  0.00  0.00    -0.040 A 
ATOM      7  C   UNL     1      -2.311   3.658 -24.706  0.00  0.00    +0.008 A 
ATOM      8  C   UNL     1      -3.568   3.992 -24.740  0.00  0.00    +0.047 A 
ATOM      9  C   UNL     1      -4.327   3.767 -23.708  0.00  0.00    +0.131 A 
ATOM     10  C   UNL     1      -3.831   3.209 -22.645  0.00  0.00    +0.063 A 
ATOM     11 BR   UNL     1      -4.591   2.984 -21.614  0.00  0.00    -0.046 Br
ATOM     12  C   UNL     1      -2.575   2.875 -22.611  0.00  0.00    -0.026 A 
ATOM     13  C   UNL     1      -2.078   2.316 -21.547  0.00  0.00    +0.037 C 
ATOM     14  C   UNL     1      -0.822   1.983 -21.515  0.00  0.00    +0.009 C 
ATOM     15  C   UNL     1      -0.063   2.208 -22.545  0.00  0.00    +0.000 C 
ATOM     16  C   UNL     1       3.149   1.678 -23.259  0.00  0.00    +0.121 C 
ATOM     17  C   UNL     1       3.130   1.194 -22.052  0.00  0.00    +0.032 C 
ATOM     18  C   UNL     1       1.920   1.315 -21.592  0.00  0.00    +0.007 C 
ATOM     19  C   UNL     1       1.193   1.874 -22.512  0.00  0.00    +0.001 C 
ENDROOT
BRANCH   9  20
ATOM     20  O   UNL     1      -5.584   4.101 -23.742  0.00  0.00    -0.506 OA
ATOM     21  H   UNL     1      -5.901   4.784 -23.185  0.00  0.00    +0.292 HD
ENDBRANCH   9  20
BRANCH  16  22
ATOM     22  O   UNL     1       4.184   1.733 -24.043  0.00  0.00    -0.391 OA
ATOM     23  H   UNL     1       4.381   2.659 -24.258  0.00  0.00    +0.210 HD
ENDBRANCH  16  22
TORSDOF 2
ENDMDL
MODEL 5
REMARK VINA RESULT:   -10.009      1.312      2.692
REMARK INTER + INTRA:         -10.594
REMARK INTER:                 -10.594
REMARK INTRA:                   0.000
REMARK UNBOUND:                 0.000
REMARK  Name = C[C@]12CC[C@@H]3c4ccc(O)c(Br)c4CC[C@@H]3[C@H]1CC[C@@H]2O             ZINC000105154821
REMARK  3 active torsions:
REMARK  status: ('A' for Active; 'I' for Inactive)
REMARK    1  A    between atoms: C_1  and  C_2
REMARK    2  A    between atoms: C_9  and  O_10
REMARK    3  A    between atoms: C_20  and  O_21
REMARK                            x       y       z     vdW  Elec       q    Type
REMARK                         _______ _______ _______ _____ _____    ______ ____
ROOT
ATOM      1  C   UNL     1      -3.608   2.767 -21.801  0.00  0.00    +0.014 C 
ATOM      2  C   UNL     1      -2.672   2.996 -22.674  0.00  0.00    -0.003 C 
ATOM      3  C   UNL     1      -2.253   2.411 -21.591  0.00  0.00    +0.010 C 
ATOM      4  C   UNL     1      -0.995   2.110 -21.460  0.00  0.00    +0.009 C 
ATOM      5  C   UNL     1      -0.156   2.394 -22.412  0.00  0.00    +0.023 C 
ATOM      6  C   UNL     1       1.102   2.094 -22.281  0.00  0.00    -0.040 A 
ATOM      7  C   UNL     1       1.520   1.509 -21.198  0.00  0.00    +0.008 A 
ATOM      8  C   UNL     1       2.778   1.208 -21.067  0.00  0.00    +0.047 A 
ATOM      9  C   UNL     1       3.617   1.492 -22.019  0.00  0.00    +0.131 A 
ATOM     10  C   UNL     1       3.198   2.077 -23.101  0.00  0.00    +0.063 A 
ATOM     11 BR   UNL     1       4.037   2.361 -24.053  0.00  0.00    -0.046 Br
ATOM     12  C   UNL     1       1.940   2.378 -23.233  0.00  0.00    -0.026 A 
ATOM     13  C   UNL     1       1.521   2.963 -24.315  0.00  0.00    +0.037 C 
ATOM     14  C   UNL     1       0.263   3.264 -24.446  0.00  0.00    +0.009 C 
ATOM     15  C   UNL     1      -0.576   2.980 -23.494  0.00  0.00    +0.000 C 
ATOM     16  C   UNL     1      -3.852   3.395 -23.046  0.00  0.00    +0.121 C 
ATOM     17  C   UNL     1      -3.743   3.926 -24.228  0.00  0.00    +0.032 C 
ATOM     18  C   UNL     1      -2.495   3.854 -24.586  0.00  0.00    +0.007 C 
ATOM     19  C   UNL     1      -1.833   3.281 -23.626  0.00  0.00    +0.001 C 
ENDROOT
BRANCH   9  20
ATOM     20  O   UNL     1       4.875   1.191 -21.888  0.00  0.00    -0.506 OA
ATOM     21  H   UNL     1       5.202   0.896 -21.061  0.00  0.00    +0.292 HD
ENDBRANCH   9  20
BRANCH  16  22
ATOM     22  O   UNL     1      -4.949   3.283 -22.358  0.00  0.00    -0.391 OA
ATOM     23  H   UNL     1      -4.939   2.447 -21.866  0.00  0.00    +0.210 HD
ENDBRANCH  16  22
TORSDOF 2
ENDMDL
MODEL 6
REMARK VINA RESULT:    -9.982      1.842      3.285
REMARK INTER + INTRA:         -10.566
REMARK INTER:                 -10.566
REMARK INTRA:                   0.000
REMARK UNBOUND:                 0.000
REMARK  Name = C[C@]12CC[C@@H]3c4ccc(O)c(Br)c4CC[C@@H]3[C@H]1CC[C@@H]2O             ZINC000105154821
REMARK  3 active torsions:
REMARK  status: ('A' for Active; 'I' for Inactive)
REMARK    1  A    between atoms: C_1  and  C_2
REMARK    2  A    between atoms: C_9  and  O_10
REMARK    3  A    between atoms: C_20  and  O_21
REMARK                            x       y       z     vdW  Elec       q    Type
REMARK                         _______ _______ _______ _____ _____    ______ ____
ROOT
ATOM      1  C   UNL     1      -2.442   2.240 -21.767  0.00  0.00    +0.014 C 
ATOM      2  C   UNL     1      -1.483   2.869 -22.381  0.00  0.00    -0.003 C 
ATOM      3  C   UNL     1      -1.087   1.833 -21.700  0.00  0.00    +0.010 C 
ATOM      4  C   UNL     1       0.173   1.512 -21.680  0.00  0.00    +0.009 C 
ATOM      5  C   UNL     1       1.036   2.226 -22.340  0.00  0.00    +0.023 C 
ATOM      6  C   UNL     1       2.296   1.905 -22.320  0.00  0.00    -0.040 A 
ATOM      7  C   UNL     1       2.691   0.870 -21.640  0.00  0.00    +0.008 A 
ATOM      8  C   UNL     1       3.952   0.548 -21.620  0.00  0.00    +0.047 A 
ATOM      9  C   UNL     1       4.814   1.263 -22.280  0.00  0.00    +0.131 A 
ATOM     10  C   UNL     1       4.418   2.297 -22.959  0.00  0.00    +0.063 A 
ATOM     11 BR   UNL     1       5.282   3.010 -23.619  0.00  0.00    -0.046 Br
ATOM     12  C   UNL     1       3.160   2.618 -22.980  0.00  0.00    -0.026 A 
ATOM     13  C   UNL     1       2.763   3.653 -23.660  0.00  0.00    +0.037 C 
ATOM     14  C   UNL     1       1.503   3.974 -23.680  0.00  0.00    +0.009 C 
ATOM     15  C   UNL     1       0.640   3.261 -23.020  0.00  0.00    +0.000 C 
ATOM     16  C   UNL     1      -2.658   3.392 -22.561  0.00  0.00    +0.121 C 
ATOM     17  C   UNL     1      -2.522   4.430 -23.333  0.00  0.00    +0.032 C 
ATOM     18  C   UNL     1      -1.262   4.546 -23.628  0.00  0.00    +0.007 C 
ATOM     19  C   UNL     1      -0.619   3.582 -23.041  0.00  0.00    +0.001 C 
ENDROOT
BRANCH   9  20
ATOM     20  O   UNL     1       6.075   0.941 -22.259  0.00  0.00    -0.506 OA
ATOM     21  H   UNL     1       6.342   0.119 -21.898  0.00  0.00    +0.292 HD
ENDBRANCH   9  20
BRANCH  16  22
ATOM     22  O   UNL     1      -3.775   2.956 -22.059  0.00  0.00    -0.391 OA
ATOM     23  H   UNL     1      -4.120   3.603 -21.424  0.00  0.00    +0.210 HD
ENDBRANCH  16  22
TORSDOF 2
ENDMDL
MODEL 7
REMARK VINA RESULT:    -9.272      2.248      3.221
REMARK INTER + INTRA:          -9.814
REMARK INTER:                  -9.814
REMARK INTRA:                   0.000
REMARK UNBOUND:                 0.000
REMARK  Name = C[C@]12CC[C@@H]3c4ccc(O)c(Br)c4CC[C@@H]3[C@H]1CC[C@@H]2O             ZINC000105154821
REMARK  3 active torsions:
REMARK  status: ('A' for Active; 'I' for Inactive)
REMARK    1  A    between atoms: C_1  and  C_2
REMARK    2  A    between atoms: C_9  and  O_10
REMARK    3  A    between atoms: C_20  and  O_21
REMARK                            x       y       z     vdW  Elec       q    Type
REMARK                         _______ _______ _______ _____ _____    ______ ____
ROOT
ATOM      1  C   UNL     1      -1.210   4.863 -23.732  0.00  0.00    +0.014 C 
ATOM      2  C   UNL     1      -0.653   3.813 -23.204  0.00  0.00    -0.003 C 
ATOM      3  C   UNL     1       0.194   4.705 -23.627  0.00  0.00    +0.010 C 
ATOM      4  C   UNL     1       1.472   4.498 -23.501  0.00  0.00    +0.009 C 
ATOM      5  C   UNL     1       1.902   3.402 -22.952  0.00  0.00    +0.023 C 
ATOM      6  C   UNL     1       3.180   3.196 -22.825  0.00  0.00    -0.040 A 
ATOM      7  C   UNL     1       4.026   4.087 -23.249  0.00  0.00    +0.008 A 
ATOM      8  C   UNL     1       5.304   3.881 -23.123  0.00  0.00    +0.047 A 
ATOM      9  C   UNL     1       5.734   2.784 -22.573  0.00  0.00    +0.131 A 
ATOM     10  C   UNL     1       4.887   1.893 -22.151  0.00  0.00    +0.063 A 
ATOM     11 BR   UNL     1       5.318   0.797 -21.601  0.00  0.00    -0.046 Br
ATOM     12  C   UNL     1       3.610   2.099 -22.276  0.00  0.00    -0.026 A 
ATOM     13  C   UNL     1       2.763   1.208 -21.853  0.00  0.00    +0.037 C 
ATOM     14  C   UNL     1       1.486   1.414 -21.980  0.00  0.00    +0.009 C 
ATOM     15  C   UNL     1       1.055   2.511 -22.529  0.00  0.00    +0.000 C 
ATOM     16  C   UNL     1      -1.952   3.776 -23.210  0.00  0.00    +0.121 C 
ATOM     17  C   UNL     1      -2.325   2.656 -22.665  0.00  0.00    +0.032 C 
ATOM     18  C   UNL     1      -1.255   2.001 -22.322  0.00  0.00    +0.007 C 
ATOM     19  C   UNL     1      -0.222   2.716 -22.654  0.00  0.00    +0.001 C 
ENDROOT
BRANCH   9  20
ATOM     20  O   UNL     1       7.012   2.578 -22.447  0.00  0.00    -0.506 OA
ATOM     21  H   UNL     1       7.417   2.655 -21.606  0.00  0.00    +0.292 HD
ENDBRANCH   9  20
BRANCH  16  22
ATOM     22  O   UNL     1      -2.741   4.696 -23.679  0.00  0.00    -0.391 OA
ATOM     23  H   UNL     1      -3.660   4.391 -23.631  0.00  0.00    +0.210 HD
ENDBRANCH  16  22
TORSDOF 2
ENDMDL
