MODEL 1
REMARK VINA RESULT:    -9.676      0.000      0.000
REMARK INTER + INTRA:         -12.304
REMARK INTER:                 -11.697
REMARK INTRA:                  -0.607
REMARK UNBOUND:                -0.365
REMARK  Name = ZINC000004984609
REMARK  4 active torsions:
REMARK  status: ('A' for Active; 'I' for Inactive)
REMARK    1  A    between atoms: C_2  and  O_3
REMARK    2  A    between atoms: C_2  and  C_15
REMARK    3  A    between atoms: O_3  and  C_4
REMARK    4  A    between atoms: C_4  and  C_5
REMARK                            x       y       z     vdW  Elec       q    Type
REMARK                         _______ _______ _______ _____ _____    ______ ____
ROOT
ATOM      1  C   UNL     1      -1.133   2.270 -23.436  0.00  0.00    +0.241 C 
ENDROOT
BRANCH   1   2
ATOM      2  C   UNL     1      -2.144   2.835 -24.030  0.00  0.00    +0.075 C 
ATOM      3  C   UNL     1      -2.038   3.215 -25.269  0.00  0.00    +0.017 C 
ATOM      4  C   UNL     1      -3.048   3.779 -25.863  0.00  0.00    +0.051 C 
ATOM      5  C   UNL     1      -4.162   3.963 -25.217  0.00  0.00    +0.131 C 
ATOM      6  N   UNL     1      -4.266   3.583 -23.979  0.00  0.00    +0.238 N 
ATOM      7  H   UNL     1      -5.228   3.921 -23.953  0.00  0.00    +0.204 HD
ATOM      8  C   UNL     1      -5.380   3.767 -23.334  0.00  0.00    +0.131 C 
ATOM      9  C   UNL     1      -5.484   3.387 -22.095  0.00  0.00    +0.051 C 
ATOM     10  C   UNL     1      -4.474   2.823 -21.502  0.00  0.00    +0.011 C 
ATOM     11  C   UNL     1      -3.361   2.639 -22.147  0.00  0.00    +0.055 C 
ATOM     12  C   UNL     1      -3.257   3.019 -23.385  0.00  0.00    +0.071 C 
ENDBRANCH   1   2
BRANCH   1  13
ATOM     13  O   UNL     1       0.050   2.329 -23.970  0.00  0.00    -0.461 OA
BRANCH  13  15
ATOM     14  O   UNL     1       1.223   1.075 -22.513  0.00  0.00    -0.245 OA
ATOM     15  C   UNL     1       1.106   2.152 -23.231  0.00  0.00    +0.339 C 
BRANCH  15  16
ATOM     16  C   UNL     1       2.043   3.051 -23.212  0.00  0.00    +0.060 A 
ATOM     17  C   UNL     1       1.733   4.313 -23.205  0.00  0.00    +0.015 A 
ATOM     18  C   UNL     1       2.671   5.214 -23.186  0.00  0.00    +0.002 A 
ATOM     19  C   UNL     1       3.920   4.851 -23.173  0.00  0.00    +0.015 A 
ATOM     20  C   UNL     1       4.229   3.588 -23.180  0.00  0.00    +0.019 A 
ATOM     21 BR   UNL     1       5.478   3.225 -23.168  0.00  0.00    -0.050 Br
ATOM     22  C   UNL     1       3.292   2.688 -23.200  0.00  0.00    +0.030 A 
ENDBRANCH  15  16
ENDBRANCH  13  15
ENDBRANCH   1  13
TORSDOF 4
ENDMDL
MODEL 2
REMARK VINA RESULT:    -9.674      1.976      3.126
REMARK INTER + INTRA:         -12.301
REMARK INTER:                 -11.852
REMARK INTRA:                  -0.449
REMARK UNBOUND:                -0.365
REMARK  Name = ZINC000004984609
REMARK  4 active torsions:
REMARK  status: ('A' for Active; 'I' for Inactive)
REMARK    1  A    between atoms: C_2  and  O_3
REMARK    2  A    between atoms: C_2  and  C_15
REMARK    3  A    between atoms: O_3  and  C_4
REMARK    4  A    between atoms: C_4  and  C_5
REMARK                            x       y       z     vdW  Elec       q    Type
REMARK                         _______ _______ _______ _____ _____    ______ ____
ROOT
ATOM      1  C   UNL     1      -1.815   2.792 -21.415  0.00  0.00    +0.241 C 
ENDROOT
BRANCH   1   2
ATOM      2  C   UNL     1      -3.081   2.910 -21.692  0.00  0.00    +0.075 C 
ATOM      3  C   UNL     1      -3.973   2.472 -20.854  0.00  0.00    +0.017 C 
ATOM      4  C   UNL     1      -5.238   2.590 -21.131  0.00  0.00    +0.051 C 
ATOM      5  C   UNL     1      -5.609   3.145 -22.247  0.00  0.00    +0.131 C 
ATOM      6  N   UNL     1      -4.717   3.583 -23.084  0.00  0.00    +0.238 N 
ATOM      7  H   UNL     1      -5.456   3.888 -23.717  0.00  0.00    +0.204 HD
ATOM      8  C   UNL     1      -5.089   4.138 -24.199  0.00  0.00    +0.131 C 
ATOM      9  C   UNL     1      -4.196   4.575 -25.038  0.00  0.00    +0.051 C 
ATOM     10  C   UNL     1      -2.932   4.457 -24.759  0.00  0.00    +0.011 C 
ATOM     11  C   UNL     1      -2.560   3.902 -23.644  0.00  0.00    +0.055 C 
ATOM     12  C   UNL     1      -3.453   3.465 -22.807  0.00  0.00    +0.071 C 
ENDBRANCH   1   2
BRANCH   1  13
ATOM     13  O   UNL     1      -1.174   1.713 -21.753  0.00  0.00    -0.461 OA
BRANCH  13  15
ATOM     14  O   UNL     1       0.536   1.350 -20.334  0.00  0.00    -0.245 OA
ATOM     15  C   UNL     1       0.104   1.620 -21.529  0.00  0.00    +0.339 C 
BRANCH  15  16
ATOM     16  C   UNL     1       0.947   1.797 -22.501  0.00  0.00    +0.060 A 
ATOM     17  C   UNL     1       2.065   1.133 -22.522  0.00  0.00    +0.015 A 
ATOM     18  C   UNL     1       2.909   1.310 -23.495  0.00  0.00    +0.002 A 
ATOM     19  C   UNL     1       2.635   2.151 -24.448  0.00  0.00    +0.015 A 
ATOM     20  C   UNL     1       1.517   2.815 -24.427  0.00  0.00    +0.019 A 
ATOM     21 BR   UNL     1       1.243   3.656 -25.380  0.00  0.00    -0.050 Br
ATOM     22  C   UNL     1       0.673   2.638 -23.455  0.00  0.00    +0.030 A 
ENDBRANCH  15  16
ENDBRANCH  13  15
ENDBRANCH   1  13
TORSDOF 4
ENDMDL
MODEL 3
REMARK VINA RESULT:    -9.657      1.215      1.794
REMARK INTER + INTRA:         -12.279
REMARK INTER:                 -11.538
REMARK INTRA:                  -0.741
REMARK UNBOUND:                -0.365
REMARK  Name = ZINC000004984609
REMARK  4 active torsions:
REMARK  status: ('A' for Active; 'I' for Inactive)
REMARK    1  A    between atoms: C_2  and  O_3
REMARK    2  A    between atoms: C_2  and  C_15
REMARK    3  A    between atoms: O_3  and  C_4
REMARK    4  A    between atoms: C_4  and  C_5
REMARK                            x       y       z     vdW  Elec       q    Type
REMARK                         _______ _______ _______ _____ _____    ______ ____
ROOT
ATOM      1  C   UNL     1      -1.211   2.167 -22.030  0.00  0.00    +0.241 C 
ENDROOT
BRANCH   1   2
ATOM      2  C   UNL     1      -1.935   2.738 -22.947  0.00  0.00    +0.075 C 
ATOM      3  C   UNL     1      -1.393   3.094 -24.074  0.00  0.00    +0.017 C 
ATOM      4  C   UNL     1      -2.117   3.665 -24.991  0.00  0.00    +0.051 C 
ATOM      5  C   UNL     1      -3.383   3.879 -24.780  0.00  0.00    +0.131 C 
ATOM      6  N   UNL     1      -3.924   3.523 -23.654  0.00  0.00    +0.238 N 
ATOM      7  H   UNL     1      -4.826   3.878 -23.971  0.00  0.00    +0.204 HD
ATOM      8  C   UNL     1      -5.188   3.737 -23.443  0.00  0.00    +0.131 C 
ATOM      9  C   UNL     1      -5.730   3.381 -22.316  0.00  0.00    +0.051 C 
ATOM     10  C   UNL     1      -5.005   2.810 -21.400  0.00  0.00    +0.011 C 
ATOM     11  C   UNL     1      -3.740   2.596 -21.610  0.00  0.00    +0.055 C 
ATOM     12  C   UNL     1      -3.200   2.952 -22.737  0.00  0.00    +0.071 C 
ENDBRANCH   1   2
BRANCH   1  13
ATOM     13  O   UNL     1      -0.227   1.390 -22.370  0.00  0.00    -0.461 OA
BRANCH  13  15
ATOM     14  O   UNL     1       0.933   1.231 -20.447  0.00  0.00    -0.245 OA
ATOM     15  C   UNL     1       0.902   1.452 -21.727  0.00  0.00    +0.339 C 
BRANCH  15  16
ATOM     16  C   UNL     1       1.999   1.733 -22.365  0.00  0.00    +0.060 A 
ATOM     17  C   UNL     1       2.717   0.778 -22.877  0.00  0.00    +0.015 A 
ATOM     18  C   UNL     1       3.814   1.060 -23.515  0.00  0.00    +0.002 A 
ATOM     19  C   UNL     1       4.192   2.298 -23.642  0.00  0.00    +0.015 A 
ATOM     20  C   UNL     1       3.473   3.253 -23.130  0.00  0.00    +0.019 A 
ATOM     21 BR   UNL     1       3.852   4.490 -23.256  0.00  0.00    -0.050 Br
ATOM     22  C   UNL     1       2.377   2.971 -22.492  0.00  0.00    +0.030 A 
ENDBRANCH  15  16
ENDBRANCH  13  15
ENDBRANCH   1  13
TORSDOF 4
ENDMDL
MODEL 4
REMARK VINA RESULT:    -9.545      1.406      1.713
REMARK INTER + INTRA:         -12.141
REMARK INTER:                 -11.567
REMARK INTRA:                  -0.574
REMARK UNBOUND:                -0.365
REMARK  Name = ZINC000004984609
REMARK  4 active torsions:
REMARK  status: ('A' for Active; 'I' for Inactive)
REMARK    1  A    between atoms: C_2  and  O_3
REMARK    2  A    between atoms: C_2  and  C_15
REMARK    3  A    between atoms: O_3  and  C_4
REMARK    4  A    between atoms: C_4  and  C_5
REMARK                            x       y       z     vdW  Elec       q    Type
REMARK                         _______ _______ _______ _____ _____    ______ ____
ROOT
ATOM      1  C   UNL     1      -1.196   3.618 -22.916  0.00  0.00    +0.241 C 
ENDROOT
BRANCH   1   2
ATOM      2  C   UNL     1      -2.369   3.825 -23.440  0.00  0.00    +0.075 C 
ATOM      3  C   UNL     1      -2.467   4.374 -24.614  0.00  0.00    +0.017 C 
ATOM      4  C   UNL     1      -3.639   4.580 -25.137  0.00  0.00    +0.051 C 
ATOM      5  C   UNL     1      -4.711   4.237 -24.486  0.00  0.00    +0.131 C 
ATOM      6  N   UNL     1      -4.612   3.688 -23.313  0.00  0.00    +0.238 N 
ATOM      7  H   UNL     1      -5.628   3.625 -23.252  0.00  0.00    +0.204 HD
ATOM      8  C   UNL     1      -5.684   3.345 -22.662  0.00  0.00    +0.131 C 
ATOM      9  C   UNL     1      -5.584   2.796 -21.487  0.00  0.00    +0.051 C 
ATOM     10  C   UNL     1      -4.412   2.591 -20.965  0.00  0.00    +0.011 C 
ATOM     11  C   UNL     1      -3.340   2.933 -21.615  0.00  0.00    +0.055 C 
ATOM     12  C   UNL     1      -3.440   3.482 -22.789  0.00  0.00    +0.071 C 
ENDBRANCH   1   2
BRANCH   1  13
ATOM     13  O   UNL     1      -0.373   2.782 -23.474  0.00  0.00    -0.461 OA
BRANCH  13  15
ATOM     14  O   UNL     1      -0.398   0.905 -22.230  0.00  0.00    -0.245 OA
ATOM     15  C   UNL     1       0.253   1.903 -22.747  0.00  0.00    +0.339 C 
BRANCH  15  16
ATOM     16  C   UNL     1       1.530   2.024 -22.539  0.00  0.00    +0.060 A 
ATOM     17  C   UNL     1       2.185   3.011 -23.073  0.00  0.00    +0.015 A 
ATOM     18  C   UNL     1       3.463   3.132 -22.865  0.00  0.00    +0.002 A 
ATOM     19  C   UNL     1       4.085   2.265 -22.122  0.00  0.00    +0.015 A 
ATOM     20  C   UNL     1       3.429   1.277 -21.588  0.00  0.00    +0.019 A 
ATOM     21 BR   UNL     1       4.051   0.410 -20.846  0.00  0.00    -0.050 Br
ATOM     22  C   UNL     1       2.152   1.156 -21.796  0.00  0.00    +0.030 A 
ENDBRANCH  15  16
ENDBRANCH  13  15
ENDBRANCH   1  13
TORSDOF 4
ENDMDL
MODEL 5
REMARK VINA RESULT:    -9.484      1.440      2.085
REMARK INTER + INTRA:         -12.066
REMARK INTER:                 -11.477
REMARK INTRA:                  -0.589
REMARK UNBOUND:                -0.365
REMARK  Name = ZINC000004984609
REMARK  4 active torsions:
REMARK  status: ('A' for Active; 'I' for Inactive)
REMARK    1  A    between atoms: C_2  and  O_3
REMARK    2  A    between atoms: C_2  and  C_15
REMARK    3  A    between atoms: O_3  and  C_4
REMARK    4  A    between atoms: C_4  and  C_5
REMARK                            x       y       z     vdW  Elec       q    Type
REMARK                         _______ _______ _______ _____ _____    ______ ____
ROOT
ATOM      1  C   UNL     1      -1.364   4.321 -24.313  0.00  0.00    +0.241 C 
ENDROOT
BRANCH   1   2
ATOM      2  C   UNL     1      -2.642   4.132 -24.160  0.00  0.00    +0.075 C 
ATOM      3  C   UNL     1      -3.453   4.347 -25.153  0.00  0.00    +0.017 C 
ATOM      4  C   UNL     1      -4.730   4.158 -25.000  0.00  0.00    +0.051 C 
ATOM      5  C   UNL     1      -5.195   3.753 -23.854  0.00  0.00    +0.131 C 
ATOM      6  N   UNL     1      -4.383   3.538 -22.863  0.00  0.00    +0.238 N 
ATOM      7  H   UNL     1      -5.170   3.269 -22.273  0.00  0.00    +0.204 HD
ATOM      8  C   UNL     1      -4.848   3.134 -21.718  0.00  0.00    +0.131 C 
ATOM      9  C   UNL     1      -4.035   2.919 -20.726  0.00  0.00    +0.051 C 
ATOM     10  C   UNL     1      -2.758   3.108 -20.880  0.00  0.00    +0.011 C 
ATOM     11  C   UNL     1      -2.294   3.512 -22.024  0.00  0.00    +0.055 C 
ATOM     12  C   UNL     1      -3.106   3.727 -23.016  0.00  0.00    +0.071 C 
ENDBRANCH   1   2
BRANCH   1  13
ATOM     13  O   UNL     1      -0.621   3.373 -24.800  0.00  0.00    -0.461 OA
BRANCH  13  15
ATOM     14  O   UNL     1       1.176   4.145 -25.917  0.00  0.00    -0.245 OA
ATOM     15  C   UNL     1       0.667   3.536 -24.888  0.00  0.00    +0.339 C 
BRANCH  15  16
ATOM     16  C   UNL     1       1.444   3.091 -23.946  0.00  0.00    +0.060 A 
ATOM     17  C   UNL     1       0.981   2.259 -23.061  0.00  0.00    +0.015 A 
ATOM     18  C   UNL     1       1.759   1.813 -22.118  0.00  0.00    +0.002 A 
ATOM     19  C   UNL     1       2.999   2.199 -22.062  0.00  0.00    +0.015 A 
ATOM     20  C   UNL     1       3.461   3.031 -22.949  0.00  0.00    +0.019 A 
ATOM     21 BR   UNL     1       4.701   3.418 -22.892  0.00  0.00    -0.050 Br
ATOM     22  C   UNL     1       2.685   3.477 -23.890  0.00  0.00    +0.030 A 
ENDBRANCH  15  16
ENDBRANCH  13  15
ENDBRANCH   1  13
TORSDOF 4
ENDMDL
MODEL 6
REMARK VINA RESULT:    -9.262      1.667      2.892
REMARK INTER + INTRA:         -11.793
REMARK INTER:                 -11.131
REMARK INTRA:                  -0.661
REMARK UNBOUND:                -0.365
REMARK  Name = ZINC000004984609
REMARK  4 active torsions:
REMARK  status: ('A' for Active; 'I' for Inactive)
REMARK    1  A    between atoms: C_2  and  O_3
REMARK    2  A    between atoms: C_2  and  C_15
REMARK    3  A    between atoms: O_3  and  C_4
REMARK    4  A    between atoms: C_4  and  C_5
REMARK                            x       y       z     vdW  Elec       q    Type
REMARK                         _______ _______ _______ _____ _____    ______ ____
ROOT
ATOM      1  C   UNL     1      -1.192   2.314 -22.908  0.00  0.00    +0.241 C 
ENDROOT
BRANCH   1   2
ATOM      2  C   UNL     1      -2.414   2.605 -22.569  0.00  0.00    +0.075 C 
ATOM      3  C   UNL     1      -2.843   2.315 -21.377  0.00  0.00    +0.017 C 
ATOM      4  C   UNL     1      -4.064   2.606 -21.037  0.00  0.00    +0.051 C 
ATOM      5  C   UNL     1      -4.855   3.187 -21.891  0.00  0.00    +0.131 C 
ATOM      6  N   UNL     1      -4.425   3.477 -23.082  0.00  0.00    +0.238 N 
ATOM      7  H   UNL     1      -5.335   3.873 -23.317  0.00  0.00    +0.204 HD
ATOM      8  C   UNL     1      -5.216   4.058 -23.935  0.00  0.00    +0.131 C 
ATOM      9  C   UNL     1      -4.786   4.348 -25.127  0.00  0.00    +0.051 C 
ATOM     10  C   UNL     1      -3.565   4.057 -25.466  0.00  0.00    +0.011 C 
ATOM     11  C   UNL     1      -2.774   3.476 -24.613  0.00  0.00    +0.055 C 
ATOM     12  C   UNL     1      -3.204   3.186 -23.421  0.00  0.00    +0.071 C 
ENDBRANCH   1   2
BRANCH   1  13
ATOM     13  O   UNL     1      -0.196   2.889 -22.303  0.00  0.00    -0.461 OA
BRANCH  13  15
ATOM     14  O   UNL     1       0.887   4.400 -23.575  0.00  0.00    -0.245 OA
ATOM     15  C   UNL     1       0.857   3.245 -22.979  0.00  0.00    +0.339 C 
BRANCH  15  16
ATOM     16  C   UNL     1       1.878   2.445 -23.059  0.00  0.00    +0.060 A 
ATOM     17  C   UNL     1       2.429   2.207 -24.212  0.00  0.00    +0.015 A 
ATOM     18  C   UNL     1       3.452   1.407 -24.291  0.00  0.00    +0.002 A 
ATOM     19  C   UNL     1       3.922   0.846 -23.217  0.00  0.00    +0.015 A 
ATOM     20  C   UNL     1       3.370   1.084 -22.064  0.00  0.00    +0.019 A 
ATOM     21 BR   UNL     1       3.840   0.522 -20.990  0.00  0.00    -0.050 Br
ATOM     22  C   UNL     1       2.349   1.883 -21.984  0.00  0.00    +0.030 A 
ENDBRANCH  15  16
ENDBRANCH  13  15
ENDBRANCH   1  13
TORSDOF 4
ENDMDL
MODEL 7
REMARK VINA RESULT:    -9.208      3.226      6.716
REMARK INTER + INTRA:         -11.726
REMARK INTER:                 -11.083
REMARK INTRA:                  -0.643
REMARK UNBOUND:                -0.365
REMARK  Name = ZINC000004984609
REMARK  4 active torsions:
REMARK  status: ('A' for Active; 'I' for Inactive)
REMARK    1  A    between atoms: C_2  and  O_3
REMARK    2  A    between atoms: C_2  and  C_15
REMARK    3  A    between atoms: O_3  and  C_4
REMARK    4  A    between atoms: C_4  and  C_5
REMARK                            x       y       z     vdW  Elec       q    Type
REMARK                         _______ _______ _______ _____ _____    ______ ____
ROOT
ATOM      1  C   UNL     1      -0.328   2.033 -21.803  0.00  0.00    +0.241 C 
ENDROOT
BRANCH   1   2
ATOM      2  C   UNL     1       0.455   2.238 -22.821  0.00  0.00    +0.075 C 
ATOM      3  C   UNL     1       0.020   2.900 -23.852  0.00  0.00    +0.017 C 
ATOM      4  C   UNL     1       0.803   3.105 -24.870  0.00  0.00    +0.051 C 
ATOM      5  C   UNL     1       2.021   2.649 -24.855  0.00  0.00    +0.131 C 
ATOM      6  N   UNL     1       2.456   1.988 -23.824  0.00  0.00    +0.238 N 
ATOM      7  H   UNL     1       3.362   1.873 -24.276  0.00  0.00    +0.204 HD
ATOM      8  C   UNL     1       3.673   1.533 -23.810  0.00  0.00    +0.131 C 
ATOM      9  C   UNL     1       4.108   0.871 -22.778  0.00  0.00    +0.051 C 
ATOM     10  C   UNL     1       3.324   0.666 -21.761  0.00  0.00    +0.011 C 
ATOM     11  C   UNL     1       2.107   1.122 -21.775  0.00  0.00    +0.055 C 
ATOM     12  C   UNL     1       1.673   1.783 -22.807  0.00  0.00    +0.071 C 
ENDBRANCH   1   2
BRANCH   1  13
ATOM     13  O   UNL     1      -1.602   1.858 -21.990  0.00  0.00    -0.461 OA
BRANCH  13  15
ATOM     14  O   UNL     1      -2.245   3.184 -20.287  0.00  0.00    -0.245 OA
ATOM     15  C   UNL     1      -2.455   2.691 -21.471  0.00  0.00    +0.339 C 
BRANCH  15  16
ATOM     16  C   UNL     1      -3.518   3.031 -22.136  0.00  0.00    +0.060 A 
ATOM     17  C   UNL     1      -4.687   2.966 -21.572  0.00  0.00    +0.015 A 
ATOM     18  C   UNL     1      -5.751   3.306 -22.239  0.00  0.00    +0.002 A 
ATOM     19  C   UNL     1      -5.645   3.711 -23.470  0.00  0.00    +0.015 A 
ATOM     20  C   UNL     1      -4.475   3.775 -24.034  0.00  0.00    +0.019 A 
ATOM     21 BR   UNL     1      -4.369   4.180 -25.265  0.00  0.00    -0.050 Br
ATOM     22  C   UNL     1      -3.412   3.435 -23.368  0.00  0.00    +0.030 A 
ENDBRANCH  15  16
ENDBRANCH  13  15
ENDBRANCH   1  13
TORSDOF 4
ENDMDL
MODEL 8
REMARK VINA RESULT:    -8.996      2.986      6.931
REMARK INTER + INTRA:         -11.465
REMARK INTER:                 -10.875
REMARK INTRA:                  -0.590
REMARK UNBOUND:                -0.365
REMARK  Name = ZINC000004984609
REMARK  4 active torsions:
REMARK  status: ('A' for Active; 'I' for Inactive)
REMARK    1  A    between atoms: C_2  and  O_3
REMARK    2  A    between atoms: C_2  and  C_15
REMARK    3  A    between atoms: O_3  and  C_4
REMARK    4  A    between atoms: C_4  and  C_5
REMARK                            x       y       z     vdW  Elec       q    Type
REMARK                         _______ _______ _______ _____ _____    ______ ____
ROOT
ATOM      1  C   UNL     1       0.201   3.699 -24.119  0.00  0.00    +0.241 C 
ENDROOT
BRANCH   1   2
ATOM      2  C   UNL     1       1.407   3.212 -24.075  0.00  0.00    +0.075 C 
ATOM      3  C   UNL     1       1.629   1.992 -24.465  0.00  0.00    +0.017 C 
ATOM      4  C   UNL     1       2.834   1.506 -24.422  0.00  0.00    +0.051 C 
ATOM      5  C   UNL     1       3.816   2.240 -23.988  0.00  0.00    +0.131 C 
ATOM      6  N   UNL     1       3.594   3.459 -23.598  0.00  0.00    +0.238 N 
ATOM      7  H   UNL     1       4.583   3.574 -23.382  0.00  0.00    +0.204 HD
ATOM      8  C   UNL     1       4.575   4.193 -23.165  0.00  0.00    +0.131 C 
ATOM      9  C   UNL     1       4.352   5.413 -22.775  0.00  0.00    +0.051 C 
ATOM     10  C   UNL     1       3.147   5.899 -22.819  0.00  0.00    +0.011 C 
ATOM     11  C   UNL     1       2.166   5.165 -23.252  0.00  0.00    +0.055 C 
ATOM     12  C   UNL     1       2.389   3.946 -23.642  0.00  0.00    +0.071 C 
ENDBRANCH   1   2
BRANCH   1  13
ATOM     13  O   UNL     1      -0.822   2.898 -24.132  0.00  0.00    -0.461 OA
BRANCH  13  15
ATOM     14  O   UNL     1      -1.963   3.595 -25.944  0.00  0.00    -0.245 OA
ATOM     15  C   UNL     1      -1.937   3.277 -24.684  0.00  0.00    +0.339 C 
BRANCH  15  16
ATOM     16  C   UNL     1      -3.024   3.338 -23.975  0.00  0.00    +0.060 A 
ATOM     17  C   UNL     1      -4.110   3.831 -24.492  0.00  0.00    +0.015 A 
ATOM     18  C   UNL     1      -5.199   3.892 -23.783  0.00  0.00    +0.002 A 
ATOM     19  C   UNL     1      -5.200   3.460 -22.557  0.00  0.00    +0.015 A 
ATOM     20  C   UNL     1      -4.113   2.968 -22.040  0.00  0.00    +0.019 A 
ATOM     21 BR   UNL     1      -4.114   2.536 -20.814  0.00  0.00    -0.050 Br
ATOM     22  C   UNL     1      -3.026   2.907 -22.748  0.00  0.00    +0.030 A 
ENDBRANCH  15  16
ENDBRANCH  13  15
ENDBRANCH   1  13
TORSDOF 4
ENDMDL
MODEL 9
REMARK VINA RESULT:    -8.675      2.991      6.419
REMARK INTER + INTRA:         -11.069
REMARK INTER:                 -10.704
REMARK INTRA:                  -0.365
REMARK UNBOUND:                -0.365
REMARK  Name = ZINC000004984609
REMARK  4 active torsions:
REMARK  status: ('A' for Active; 'I' for Inactive)
REMARK    1  A    between atoms: C_2  and  O_3
REMARK    2  A    between atoms: C_2  and  C_15
REMARK    3  A    between atoms: O_3  and  C_4
REMARK    4  A    between atoms: C_4  and  C_5
REMARK                            x       y       z     vdW  Elec       q    Type
REMARK                         _______ _______ _______ _____ _____    ______ ____
ROOT
ATOM      1  C   UNL     1      -0.631   1.997 -21.300  0.00  0.00    +0.241 C 
ENDROOT
BRANCH   1   2
ATOM      2  C   UNL     1       0.511   1.900 -21.916  0.00  0.00    +0.075 C 
ATOM      3  C   UNL     1       1.245   0.839 -21.760  0.00  0.00    +0.017 C 
ATOM      4  C   UNL     1       2.386   0.742 -22.375  0.00  0.00    +0.051 C 
ATOM      5  C   UNL     1       2.792   1.707 -23.147  0.00  0.00    +0.131 C 
ATOM      6  N   UNL     1       2.058   2.768 -23.302  0.00  0.00    +0.238 N 
ATOM      7  H   UNL     1       2.757   3.164 -23.931  0.00  0.00    +0.204 HD
ATOM      8  C   UNL     1       2.464   3.732 -24.073  0.00  0.00    +0.131 C 
ATOM      9  C   UNL     1       1.729   4.794 -24.229  0.00  0.00    +0.051 C 
ATOM     10  C   UNL     1       0.589   4.890 -23.613  0.00  0.00    +0.011 C 
ATOM     11  C   UNL     1       0.183   3.926 -22.842  0.00  0.00    +0.055 C 
ATOM     12  C   UNL     1       0.917   2.865 -22.687  0.00  0.00    +0.071 C 
ENDBRANCH   1   2
BRANCH   1  13
ATOM     13  O   UNL     1      -1.740   1.909 -21.971  0.00  0.00    -0.461 OA
BRANCH  13  15
ATOM     14  O   UNL     1      -2.910   3.122 -20.477  0.00  0.00    -0.245 OA
ATOM     15  C   UNL     1      -2.732   2.704 -21.695  0.00  0.00    +0.339 C 
BRANCH  15  16
ATOM     16  C   UNL     1      -3.543   3.080 -22.637  0.00  0.00    +0.060 A 
ATOM     17  C   UNL     1      -4.771   3.397 -22.350  0.00  0.00    +0.015 A 
ATOM     18  C   UNL     1      -5.583   3.774 -23.293  0.00  0.00    +0.002 A 
ATOM     19  C   UNL     1      -5.167   3.833 -24.523  0.00  0.00    +0.015 A 
ATOM     20  C   UNL     1      -3.939   3.516 -24.810  0.00  0.00    +0.019 A 
ATOM     21 BR   UNL     1      -3.524   3.575 -26.041  0.00  0.00    -0.050 Br
ATOM     22  C   UNL     1      -3.127   3.140 -23.868  0.00  0.00    +0.030 A 
ENDBRANCH  15  16
ENDBRANCH  13  15
ENDBRANCH   1  13
TORSDOF 4
ENDMDL
