MODEL 1
REMARK VINA RESULT:   -11.101      0.000      0.000
REMARK INTER + INTRA:         -11.750
REMARK INTER:                 -11.750
REMARK INTRA:                   0.000
REMARK UNBOUND:                 0.000
REMARK  Name = ZINC000003902444
REMARK  3 active torsions:
REMARK  status: ('A' for Active; 'I' for Inactive)
REMARK    1  A    between atoms: C_1  and  C_2
REMARK    2  A    between atoms: C_10  and  O_11
REMARK    3  A    between atoms: C_20  and  O_21
REMARK                            x       y       z     vdW  Elec       q    Type
REMARK                         _______ _______ _______ _____ _____    ______ ____
ROOT
ATOM      1  C   UNL     1      -4.579   3.075 -21.824  0.00  0.00    +0.014 C 
ATOM      2  C   UNL     1      -3.847   3.313 -22.871  0.00  0.00    -0.003 C 
ATOM      3  C   UNL     1      -3.191   2.799 -21.875  0.00  0.00    +0.010 C 
ATOM      4  C   UNL     1      -1.916   2.568 -21.985  0.00  0.00    +0.009 C 
ATOM      5  C   UNL     1      -1.298   2.853 -23.092  0.00  0.00    +0.023 C 
ATOM      6  C   UNL     1      -0.023   2.623 -23.203  0.00  0.00    -0.040 A 
ATOM      7  C   UNL     1       0.633   2.108 -22.206  0.00  0.00    +0.023 A 
ATOM      8  C   UNL     1       1.908   1.878 -22.316  0.00  0.00    +0.060 A 
ATOM      9  C   UNL     1       2.526   2.163 -23.425  0.00  0.00    +0.131 A 
ATOM     10  C   UNL     1       1.870   2.678 -24.421  0.00  0.00    +0.050 A 
ATOM     11 BR   UNL     1       2.564   1.363 -21.319  0.00  0.00    -0.047 Br
ATOM     12  C   UNL     1       0.595   2.908 -24.310  0.00  0.00    -0.040 A 
ATOM     13  C   UNL     1      -0.062   3.423 -25.307  0.00  0.00    +0.036 C 
ATOM     14  C   UNL     1      -1.336   3.653 -25.197  0.00  0.00    +0.009 C 
ATOM     15  C   UNL     1      -1.954   3.368 -24.090  0.00  0.00    +0.000 C 
ATOM     16  C   UNL     1      -5.099   3.634 -23.016  0.00  0.00    +0.121 C 
ATOM     17  C   UNL     1      -5.254   4.118 -24.213  0.00  0.00    +0.032 C 
ATOM     18  C   UNL     1      -4.098   4.095 -24.808  0.00  0.00    +0.007 C 
ATOM     19  C   UNL     1      -3.229   3.598 -23.979  0.00  0.00    +0.001 C 
ENDROOT
BRANCH   9  20
ATOM     20  O   UNL     1       3.801   1.932 -23.534  0.00  0.00    -0.506 OA
ATOM     21  H   UNL     1       4.418   2.611 -23.345  0.00  0.00    +0.292 HD
ENDBRANCH   9  20
BRANCH  16  22
ATOM     22  O   UNL     1      -6.031   3.497 -22.121  0.00  0.00    -0.391 OA
ATOM     23  H   UNL     1      -6.900   3.581 -22.544  0.00  0.00    +0.210 HD
ENDBRANCH  16  22
TORSDOF 2
ENDMDL
MODEL 2
REMARK VINA RESULT:   -11.063      1.328      2.565
REMARK INTER + INTRA:         -11.710
REMARK INTER:                 -11.710
REMARK INTRA:                   0.000
REMARK UNBOUND:                 0.000
REMARK  Name = ZINC000003902444
REMARK  3 active torsions:
REMARK  status: ('A' for Active; 'I' for Inactive)
REMARK    1  A    between atoms: C_1  and  C_2
REMARK    2  A    between atoms: C_10  and  O_11
REMARK    3  A    between atoms: C_20  and  O_21
REMARK                            x       y       z     vdW  Elec       q    Type
REMARK                         _______ _______ _______ _____ _____    ______ ____
ROOT
ATOM      1  C   UNL     1      -3.685   4.144 -25.486  0.00  0.00    +0.014 C 
ATOM      2  C   UNL     1      -3.413   3.646 -24.316  0.00  0.00    -0.003 C 
ATOM      3  C   UNL     1      -2.395   3.687 -25.123  0.00  0.00    +0.010 C 
ATOM      4  C   UNL     1      -1.235   3.251 -24.730  0.00  0.00    +0.009 C 
ATOM      5  C   UNL     1      -1.094   2.774 -23.528  0.00  0.00    +0.023 C 
ATOM      6  C   UNL     1       0.065   2.338 -23.134  0.00  0.00    -0.040 A 
ATOM      7  C   UNL     1       1.083   2.378 -23.941  0.00  0.00    +0.023 A 
ATOM      8  C   UNL     1       2.244   1.942 -23.547  0.00  0.00    +0.060 A 
ATOM      9  C   UNL     1       2.384   1.466 -22.345  0.00  0.00    +0.131 A 
ATOM     10  C   UNL     1       1.366   1.425 -21.538  0.00  0.00    +0.050 A 
ATOM     11 BR   UNL     1       3.262   1.983 -24.354  0.00  0.00    -0.047 Br
ATOM     12  C   UNL     1       0.207   1.862 -21.933  0.00  0.00    -0.040 A 
ATOM     13  C   UNL     1      -0.812   1.821 -21.126  0.00  0.00    +0.036 C 
ATOM     14  C   UNL     1      -1.971   2.257 -21.519  0.00  0.00    +0.009 C 
ATOM     15  C   UNL     1      -2.113   2.734 -22.721  0.00  0.00    +0.000 C 
ATOM     16  C   UNL     1      -4.652   4.011 -24.461  0.00  0.00    +0.121 C 
ATOM     17  C   UNL     1      -5.278   3.760 -23.349  0.00  0.00    +0.032 C 
ATOM     18  C   UNL     1      -4.424   3.240 -22.517  0.00  0.00    +0.007 C 
ATOM     19  C   UNL     1      -3.272   3.170 -23.115  0.00  0.00    +0.001 C 
ENDROOT
BRANCH   9  20
ATOM     20  O   UNL     1       3.544   1.030 -21.951  0.00  0.00    -0.506 OA
ATOM     21  H   UNL     1       3.596   0.318 -21.345  0.00  0.00    +0.292 HD
ENDBRANCH   9  20
BRANCH  16  22
ATOM     22  O   UNL     1      -5.175   4.535 -25.530  0.00  0.00    -0.391 OA
ATOM     23  H   UNL     1      -4.879   4.040 -26.310  0.00  0.00    +0.210 HD
ENDBRANCH  16  22
TORSDOF 2
ENDMDL
MODEL 3
REMARK VINA RESULT:   -10.552      1.873      5.904
REMARK INTER + INTRA:         -11.169
REMARK INTER:                 -11.169
REMARK INTRA:                   0.000
REMARK UNBOUND:                 0.000
REMARK  Name = ZINC000003902444
REMARK  3 active torsions:
REMARK  status: ('A' for Active; 'I' for Inactive)
REMARK    1  A    between atoms: C_1  and  C_2
REMARK    2  A    between atoms: C_10  and  O_11
REMARK    3  A    between atoms: C_20  and  O_21
REMARK                            x       y       z     vdW  Elec       q    Type
REMARK                         _______ _______ _______ _____ _____    ______ ____
ROOT
ATOM      1  C   UNL     1       2.277   1.103 -21.667  0.00  0.00    +0.014 C 
ATOM      2  C   UNL     1       1.783   1.713 -22.704  0.00  0.00    -0.003 C 
ATOM      3  C   UNL     1       0.920   1.499 -21.756  0.00  0.00    +0.010 C 
ATOM      4  C   UNL     1      -0.313   1.886 -21.898  0.00  0.00    +0.009 C 
ATOM      5  C   UNL     1      -0.682   2.489 -22.989  0.00  0.00    +0.023 C 
ATOM      6  C   UNL     1      -1.914   2.877 -23.133  0.00  0.00    -0.040 A 
ATOM      7  C   UNL     1      -2.778   2.663 -22.185  0.00  0.00    +0.023 A 
ATOM      8  C   UNL     1      -4.010   3.050 -22.328  0.00  0.00    +0.060 A 
ATOM      9  C   UNL     1      -4.379   3.654 -23.420  0.00  0.00    +0.131 A 
ATOM     10  C   UNL     1      -3.516   3.868 -24.367  0.00  0.00    +0.050 A 
ATOM     11 BR   UNL     1      -4.874   2.836 -21.380  0.00  0.00    -0.047 Br
ATOM     12  C   UNL     1      -2.284   3.480 -24.224  0.00  0.00    -0.040 A 
ATOM     13  C   UNL     1      -1.420   3.695 -25.172  0.00  0.00    +0.036 C 
ATOM     14  C   UNL     1      -0.188   3.307 -25.029  0.00  0.00    +0.009 C 
ATOM     15  C   UNL     1       0.182   2.704 -23.938  0.00  0.00    +0.000 C 
ATOM     16  C   UNL     1       3.048   1.432 -22.808  0.00  0.00    +0.121 C 
ATOM     17  C   UNL     1       3.460   1.861 -23.964  0.00  0.00    +0.032 C 
ATOM     18  C   UNL     1       2.450   2.408 -24.574  0.00  0.00    +0.007 C 
ATOM     19  C   UNL     1       1.414   2.316 -23.795  0.00  0.00    +0.001 C 
ENDROOT
BRANCH   9  20
ATOM     20  O   UNL     1      -5.612   4.041 -23.562  0.00  0.00    -0.506 OA
ATOM     21  H   UNL     1      -5.820   4.955 -23.549  0.00  0.00    +0.292 HD
ENDBRANCH   9  20
BRANCH  16  22
ATOM     22  O   UNL     1       3.773   0.828 -21.914  0.00  0.00    -0.391 OA
ATOM     23  H   UNL     1       3.988  -0.067 -22.223  0.00  0.00    +0.210 HD
ENDBRANCH  16  22
TORSDOF 2
ENDMDL
MODEL 4
REMARK VINA RESULT:   -10.471      2.003      6.409
REMARK INTER + INTRA:         -11.084
REMARK INTER:                 -11.084
REMARK INTRA:                   0.000
REMARK UNBOUND:                 0.000
REMARK  Name = ZINC000003902444
REMARK  3 active torsions:
REMARK  status: ('A' for Active; 'I' for Inactive)
REMARK    1  A    between atoms: C_1  and  C_2
REMARK    2  A    between atoms: C_10  and  O_11
REMARK    3  A    between atoms: C_20  and  O_21
REMARK                            x       y       z     vdW  Elec       q    Type
REMARK                         _______ _______ _______ _____ _____    ______ ____
ROOT
ATOM      1  C   UNL     1       2.734   2.348 -24.742  0.00  0.00    +0.014 C 
ATOM      2  C   UNL     1       2.014   2.133 -23.682  0.00  0.00    -0.003 C 
ATOM      3  C   UNL     1       1.357   2.670 -24.666  0.00  0.00    +0.010 C 
ATOM      4  C   UNL     1       0.092   2.942 -24.534  0.00  0.00    +0.009 C 
ATOM      5  C   UNL     1      -0.515   2.677 -23.416  0.00  0.00    +0.023 C 
ATOM      6  C   UNL     1      -1.780   2.948 -23.282  0.00  0.00    -0.040 A 
ATOM      7  C   UNL     1      -2.436   3.485 -24.267  0.00  0.00    +0.023 A 
ATOM      8  C   UNL     1      -3.701   3.757 -24.135  0.00  0.00    +0.060 A 
ATOM      9  C   UNL     1      -4.308   3.491 -23.015  0.00  0.00    +0.131 A 
ATOM     10  C   UNL     1      -3.651   2.955 -22.031  0.00  0.00    +0.050 A 
ATOM     11 BR   UNL     1      -4.357   4.294 -25.120  0.00  0.00    -0.047 Br
ATOM     12  C   UNL     1      -2.387   2.683 -22.164  0.00  0.00    -0.040 A 
ATOM     13  C   UNL     1      -1.730   2.146 -21.179  0.00  0.00    +0.036 C 
ATOM     14  C   UNL     1      -0.466   1.874 -21.312  0.00  0.00    +0.009 C 
ATOM     15  C   UNL     1       0.142   2.140 -22.430  0.00  0.00    +0.000 C 
ATOM     16  C   UNL     1       3.256   1.771 -23.560  0.00  0.00    +0.121 C 
ATOM     17  C   UNL     1       3.417   1.282 -22.366  0.00  0.00    +0.032 C 
ATOM     18  C   UNL     1       2.273   1.342 -21.750  0.00  0.00    +0.007 C 
ATOM     19  C   UNL     1       1.406   1.868 -22.563  0.00  0.00    +0.001 C 
ENDROOT
BRANCH   9  20
ATOM     20  O   UNL     1      -5.573   3.763 -22.883  0.00  0.00    -0.506 OA
ATOM     21  H   UNL     1      -6.008   4.288 -23.525  0.00  0.00    +0.292 HD
ENDBRANCH   9  20
BRANCH  16  22
ATOM     22  O   UNL     1       4.177   1.879 -24.471  0.00  0.00    -0.391 OA
ATOM     23  H   UNL     1       4.481   0.995 -24.729  0.00  0.00    +0.210 HD
ENDBRANCH  16  22
TORSDOF 2
ENDMDL
MODEL 5
REMARK VINA RESULT:    -9.738      1.527      2.920
REMARK INTER + INTRA:         -10.307
REMARK INTER:                 -10.307
REMARK INTRA:                   0.000
REMARK UNBOUND:                 0.000
REMARK  Name = ZINC000003902444
REMARK  3 active torsions:
REMARK  status: ('A' for Active; 'I' for Inactive)
REMARK    1  A    between atoms: C_1  and  C_2
REMARK    2  A    between atoms: C_10  and  O_11
REMARK    3  A    between atoms: C_20  and  O_21
REMARK                            x       y       z     vdW  Elec       q    Type
REMARK                         _______ _______ _______ _____ _____    ______ ____
ROOT
ATOM      1  C   UNL     1      -2.521   4.211 -24.801  0.00  0.00    +0.014 C 
ATOM      2  C   UNL     1      -2.223   3.554 -23.720  0.00  0.00    -0.003 C 
ATOM      3  C   UNL     1      -1.195   3.849 -24.459  0.00  0.00    +0.010 C 
ATOM      4  C   UNL     1      -0.002   3.488 -24.089  0.00  0.00    +0.009 C 
ATOM      5  C   UNL     1       0.162   2.832 -22.979  0.00  0.00    +0.023 C 
ATOM      6  C   UNL     1       1.355   2.470 -22.608  0.00  0.00    -0.040 A 
ATOM      7  C   UNL     1       2.382   2.766 -23.346  0.00  0.00    +0.023 A 
ATOM      8  C   UNL     1       3.575   2.405 -22.976  0.00  0.00    +0.060 A 
ATOM      9  C   UNL     1       3.739   1.748 -21.866  0.00  0.00    +0.131 A 
ATOM     10  C   UNL     1       2.712   1.452 -21.127  0.00  0.00    +0.050 A 
ATOM     11 BR   UNL     1       4.603   2.700 -23.715  0.00  0.00    -0.047 Br
ATOM     12  C   UNL     1       1.519   1.813 -21.498  0.00  0.00    -0.040 A 
ATOM     13  C   UNL     1       0.491   1.518 -20.759  0.00  0.00    +0.036 C 
ATOM     14  C   UNL     1      -0.701   1.879 -21.129  0.00  0.00    +0.009 C 
ATOM     15  C   UNL     1      -0.866   2.536 -22.239  0.00  0.00    +0.000 C 
ATOM     16  C   UNL     1      -3.493   3.793 -23.861  0.00  0.00    +0.121 C 
ATOM     17  C   UNL     1      -4.113   3.284 -22.838  0.00  0.00    +0.032 C 
ATOM     18  C   UNL     1      -3.226   2.730 -22.065  0.00  0.00    +0.007 C 
ATOM     19  C   UNL     1      -2.058   2.897 -22.610  0.00  0.00    +0.001 C 
ENDROOT
BRANCH   9  20
ATOM     20  O   UNL     1       4.932   1.387 -21.495  0.00  0.00    -0.506 OA
ATOM     21  H   UNL     1       5.078   1.075 -20.624  0.00  0.00    +0.292 HD
ENDBRANCH   9  20
BRANCH  16  22
ATOM     22  O   UNL     1      -4.046   4.429 -24.850  0.00  0.00    -0.391 OA
ATOM     23  H   UNL     1      -4.939   4.081 -25.000  0.00  0.00    +0.210 HD
ENDBRANCH  16  22
TORSDOF 2
ENDMDL
MODEL 6
REMARK VINA RESULT:    -9.220      2.558      4.239
REMARK INTER + INTRA:          -9.759
REMARK INTER:                  -9.759
REMARK INTRA:                   0.000
REMARK UNBOUND:                 0.000
REMARK  Name = ZINC000003902444
REMARK  3 active torsions:
REMARK  status: ('A' for Active; 'I' for Inactive)
REMARK    1  A    between atoms: C_1  and  C_2
REMARK    2  A    between atoms: C_10  and  O_11
REMARK    3  A    between atoms: C_20  and  O_21
REMARK                            x       y       z     vdW  Elec       q    Type
REMARK                         _______ _______ _______ _____ _____    ______ ____
ROOT
ATOM      1  C   UNL     1      -0.810   4.762 -23.380  0.00  0.00    +0.014 C 
ATOM      2  C   UNL     1      -0.262   3.662 -22.957  0.00  0.00    -0.003 C 
ATOM      3  C   UNL     1       0.591   4.556 -23.360  0.00  0.00    +0.010 C 
ATOM      4  C   UNL     1       1.866   4.306 -23.316  0.00  0.00    +0.009 C 
ATOM      5  C   UNL     1       2.288   3.160 -22.869  0.00  0.00    +0.023 C 
ATOM      6  C   UNL     1       3.563   2.909 -22.825  0.00  0.00    -0.040 A 
ATOM      7  C   UNL     1       4.415   3.803 -23.228  0.00  0.00    +0.023 A 
ATOM      8  C   UNL     1       5.690   3.553 -23.185  0.00  0.00    +0.060 A 
ATOM      9  C   UNL     1       6.112   2.406 -22.737  0.00  0.00    +0.131 A 
ATOM     10  C   UNL     1       5.259   1.512 -22.334  0.00  0.00    +0.050 A 
ATOM     11 BR   UNL     1       6.543   4.447 -23.588  0.00  0.00    -0.047 Br
ATOM     12  C   UNL     1       3.984   1.763 -22.378  0.00  0.00    -0.040 A 
ATOM     13  C   UNL     1       3.131   0.869 -21.975  0.00  0.00    +0.036 C 
ATOM     14  C   UNL     1       1.857   1.120 -22.018  0.00  0.00    +0.009 C 
ATOM     15  C   UNL     1       1.435   2.265 -22.466  0.00  0.00    +0.000 C 
ATOM     16  C   UNL     1      -1.560   3.663 -22.898  0.00  0.00    +0.121 C 
ATOM     17  C   UNL     1      -1.941   2.518 -22.414  0.00  0.00    +0.032 C 
ATOM     18  C   UNL     1      -0.877   1.809 -22.174  0.00  0.00    +0.007 C 
ATOM     19  C   UNL     1       0.160   2.517 -22.510  0.00  0.00    +0.001 C 
ENDROOT
BRANCH   9  20
ATOM     20  O   UNL     1       7.387   2.156 -22.694  0.00  0.00    -0.506 OA
ATOM     21  H   UNL     1       8.001   2.799 -22.988  0.00  0.00    +0.292 HD
ENDBRANCH   9  20
BRANCH  16  22
ATOM     22  O   UNL     1      -2.341   4.637 -23.259  0.00  0.00    -0.391 OA
ATOM     23  H   UNL     1      -2.890   4.352 -24.006  0.00  0.00    +0.210 HD
ENDBRANCH  16  22
TORSDOF 2
ENDMDL
MODEL 7
REMARK VINA RESULT:    -8.173      2.893      7.306
REMARK INTER + INTRA:          -8.651
REMARK INTER:                  -8.651
REMARK INTRA:                   0.000
REMARK UNBOUND:                 0.000
REMARK  Name = ZINC000003902444
REMARK  3 active torsions:
REMARK  status: ('A' for Active; 'I' for Inactive)
REMARK    1  A    between atoms: C_1  and  C_2
REMARK    2  A    between atoms: C_10  and  O_11
REMARK    3  A    between atoms: C_20  and  O_21
REMARK                            x       y       z     vdW  Elec       q    Type
REMARK                         _______ _______ _______ _____ _____    ______ ____
ROOT
ATOM      1  C   UNL     1       5.544   5.015 -23.190  0.00  0.00    +0.014 C 
ATOM      2  C   UNL     1       4.980   3.907 -22.811  0.00  0.00    -0.003 C 
ATOM      3  C   UNL     1       4.142   4.816 -23.210  0.00  0.00    +0.010 C 
ATOM      4  C   UNL     1       2.865   4.572 -23.204  0.00  0.00    +0.009 C 
ATOM      5  C   UNL     1       2.427   3.416 -22.800  0.00  0.00    +0.023 C 
ATOM      6  C   UNL     1       1.150   3.171 -22.794  0.00  0.00    -0.040 A 
ATOM      7  C   UNL     1       0.312   4.080 -23.192  0.00  0.00    +0.023 A 
ATOM      8  C   UNL     1      -0.965   3.836 -23.187  0.00  0.00    +0.060 A 
ATOM      9  C   UNL     1      -1.403   2.679 -22.782  0.00  0.00    +0.131 A 
ATOM     10  C   UNL     1      -0.564   1.770 -22.384  0.00  0.00    +0.050 A 
ATOM     11 BR   UNL     1      -1.803   4.745 -23.585  0.00  0.00    -0.047 Br
ATOM     12  C   UNL     1       0.712   2.015 -22.390  0.00  0.00    -0.040 A 
ATOM     13  C   UNL     1       1.551   1.106 -21.991  0.00  0.00    +0.036 C 
ATOM     14  C   UNL     1       2.828   1.350 -21.997  0.00  0.00    +0.009 C 
ATOM     15  C   UNL     1       3.266   2.506 -22.401  0.00  0.00    +0.000 C 
ATOM     16  C   UNL     1       6.277   3.899 -22.721  0.00  0.00    +0.121 C 
ATOM     17  C   UNL     1       6.641   2.739 -22.260  0.00  0.00    +0.032 C 
ATOM     18  C   UNL     1       5.568   2.029 -22.066  0.00  0.00    +0.007 C 
ATOM     19  C   UNL     1       4.542   2.751 -22.407  0.00  0.00    +0.001 C 
ENDROOT
BRANCH   9  20
ATOM     20  O   UNL     1      -2.680   2.435 -22.777  0.00  0.00    -0.506 OA
ATOM     21  H   UNL     1      -3.172   2.497 -23.571  0.00  0.00    +0.292 HD
ENDBRANCH   9  20
BRANCH  16  22
ATOM     22  O   UNL     1       7.071   4.879 -23.035  0.00  0.00    -0.391 OA
ATOM     23  H   UNL     1       7.046   5.020 -23.995  0.00  0.00    +0.210 HD
ENDBRANCH  16  22
TORSDOF 2
ENDMDL
