MODEL 1
REMARK VINA RESULT:   -12.144      0.000      0.000
REMARK INTER + INTRA:         -13.299
REMARK INTER:                 -12.889
REMARK INTRA:                  -0.410
REMARK UNBOUND:                 0.266
REMARK  Name = ZINC000006755466
REMARK  4 active torsions:
REMARK  status: ('A' for Active; 'I' for Inactive)
REMARK    1  A    between atoms: C_1  and  C_2
REMARK    2  A    between atoms: C_7  and  C_8
REMARK    3  A    between atoms: C_16  and  C_17
REMARK    4  A    between atoms: C_17  and  N_18
REMARK                            x       y       z     vdW  Elec       q    Type
REMARK                         _______ _______ _______ _____ _____    ______ ____
ROOT
ATOM      1  C   UNL     1      -4.050   2.489 -20.507  0.00  0.00    +0.039 C 
ATOM      2  C   UNL     1      -4.318   2.920 -21.704  0.00  0.00    -0.067 C 
ATOM      3  C   UNL     1      -5.477   3.337 -22.124  0.00  0.00    -0.024 C 
ATOM      4  C   UNL     1      -5.351   3.685 -23.370  0.00  0.00    +0.065 C 
ATOM      5  C   UNL     1      -4.116   3.483 -23.720  0.00  0.00    +0.112 C 
ATOM      6  O   UNL     1      -4.909   3.959 -24.634  0.00  0.00    -0.360 OA
ATOM      7  C   UNL     1      -3.660   3.732 -24.912  0.00  0.00    +0.097 C 
ATOM      8  C   UNL     1      -2.453   3.569 -25.369  0.00  0.00    +0.038 C 
ATOM      9  C   UNL     1      -1.406   3.118 -24.747  0.00  0.00    +0.011 C 
ATOM     10  C   UNL     1      -1.304   2.718 -23.514  0.00  0.00    +0.049 C 
ATOM     11  C   UNL     1      -2.227   2.670 -22.599  0.00  0.00    +0.190 C 
ATOM     12  O   UNL     1      -1.689   2.204 -21.511  0.00  0.00    -0.460 OA
ATOM     13  C   UNL     1      -0.435   1.965 -21.753  0.00  0.00    +0.316 C 
ATOM     14  O   UNL     1       0.431   1.491 -20.906  0.00  0.00    -0.250 OA
ATOM     15  C   UNL     1      -0.197   2.282 -22.991  0.00  0.00    +0.149 C 
ATOM     16  C   UNL     1      -3.948   4.166 -26.103  0.00  0.00    +0.044 C 
ATOM     17  C   UNL     1      -3.478   3.010 -22.691  0.00  0.00    +0.090 C 
ENDROOT
BRANCH  15  18
ATOM     18  C   UNL     1       0.948   2.181 -23.600  0.00  0.00    +0.146 C 
BRANCH  18  19
ATOM     19  N   UNL     1       1.877   3.066 -23.389  0.00  0.00    +0.236 N 
ATOM     20  H   UNL     1       2.843   3.294 -23.153  0.00  0.00    +0.203 HD
ATOM     21  C   UNL     1       3.080   2.683 -23.079  0.00  0.00    +0.131 C 
ATOM     22  C   UNL     1       4.009   3.568 -22.868  0.00  0.00    +0.051 C 
ATOM     23  C   UNL     1       3.735   4.835 -22.967  0.00  0.00    +0.010 C 
ATOM     24  C   UNL     1       2.531   5.217 -23.277  0.00  0.00    +0.051 C 
ATOM     25  C   UNL     1       1.603   4.332 -23.488  0.00  0.00    +0.131 C 
ENDBRANCH  18  19
ENDBRANCH  15  18
TORSDOF 2
ENDMDL
MODEL 2
REMARK VINA RESULT:   -11.620      1.660      2.877
REMARK INTER + INTRA:         -12.712
REMARK INTER:                 -12.261
REMARK INTRA:                  -0.452
REMARK UNBOUND:                 0.266
REMARK  Name = ZINC000006755466
REMARK  4 active torsions:
REMARK  status: ('A' for Active; 'I' for Inactive)
REMARK    1  A    between atoms: C_1  and  C_2
REMARK    2  A    between atoms: C_7  and  C_8
REMARK    3  A    between atoms: C_16  and  C_17
REMARK    4  A    between atoms: C_17  and  N_18
REMARK                            x       y       z     vdW  Elec       q    Type
REMARK                         _______ _______ _______ _____ _____    ______ ____
ROOT
ATOM      1  C   UNL     1      -3.311   4.120 -26.277  0.00  0.00    +0.039 C 
ATOM      2  C   UNL     1      -3.722   3.901 -25.064  0.00  0.00    -0.067 C 
ATOM      3  C   UNL     1      -4.940   4.044 -24.632  0.00  0.00    -0.024 C 
ATOM      4  C   UNL     1      -4.959   3.732 -23.370  0.00  0.00    +0.065 C 
ATOM      5  C   UNL     1      -3.752   3.397 -23.022  0.00  0.00    +0.112 C 
ATOM      6  O   UNL     1      -4.660   3.351 -22.092  0.00  0.00    -0.360 OA
ATOM      7  C   UNL     1      -3.431   3.029 -21.817  0.00  0.00    +0.097 C 
ATOM      8  C   UNL     1      -2.266   2.675 -21.361  0.00  0.00    +0.038 C 
ATOM      9  C   UNL     1      -1.135   2.601 -21.997  0.00  0.00    +0.011 C 
ATOM     10  C   UNL     1      -0.889   2.863 -23.247  0.00  0.00    +0.049 C 
ATOM     11  C   UNL     1      -1.714   3.264 -24.168  0.00  0.00    +0.190 C 
ATOM     12  O   UNL     1      -1.043   3.402 -25.274  0.00  0.00    -0.460 OA
ATOM     13  C   UNL     1       0.195   3.088 -25.036  0.00  0.00    +0.316 C 
ATOM     14  O   UNL     1       1.167   3.103 -25.898  0.00  0.00    -0.250 OA
ATOM     15  C   UNL     1       0.290   2.754 -23.783  0.00  0.00    +0.149 C 
ATOM     16  C   UNL     1      -3.861   2.815 -20.609  0.00  0.00    +0.044 C 
ATOM     17  C   UNL     1      -2.988   3.501 -24.069  0.00  0.00    +0.090 C 
ENDROOT
BRANCH  15  18
ATOM     18  C   UNL     1       1.376   2.378 -23.173  0.00  0.00    +0.146 C 
BRANCH  18  19
ATOM     19  N   UNL     1       2.436   3.130 -23.209  0.00  0.00    +0.236 N 
ATOM     20  H   UNL     1       3.440   3.234 -23.352  0.00  0.00    +0.203 HD
ATOM     21  C   UNL     1       3.593   2.607 -23.489  0.00  0.00    +0.131 C 
ATOM     22  C   UNL     1       4.653   3.359 -23.525  0.00  0.00    +0.051 C 
ATOM     23  C   UNL     1       4.556   4.632 -23.281  0.00  0.00    +0.010 C 
ATOM     24  C   UNL     1       3.398   5.154 -23.000  0.00  0.00    +0.051 C 
ATOM     25  C   UNL     1       2.338   4.402 -22.964  0.00  0.00    +0.131 C 
ENDBRANCH  18  19
ENDBRANCH  15  18
TORSDOF 2
ENDMDL
MODEL 3
REMARK VINA RESULT:   -10.228      1.883      6.549
REMARK INTER + INTRA:         -11.158
REMARK INTER:                 -10.979
REMARK INTRA:                  -0.179
REMARK UNBOUND:                 0.266
REMARK  Name = ZINC000006755466
REMARK  4 active torsions:
REMARK  status: ('A' for Active; 'I' for Inactive)
REMARK    1  A    between atoms: C_1  and  C_2
REMARK    2  A    between atoms: C_7  and  C_8
REMARK    3  A    between atoms: C_16  and  C_17
REMARK    4  A    between atoms: C_17  and  N_18
REMARK                            x       y       z     vdW  Elec       q    Type
REMARK                         _______ _______ _______ _____ _____    ______ ____
ROOT
ATOM      1  C   UNL     1       2.655   0.404 -22.872  0.00  0.00    +0.039 C 
ATOM      2  C   UNL     1       3.170   1.596 -22.819  0.00  0.00    -0.067 C 
ATOM      3  C   UNL     1       4.423   1.879 -22.616  0.00  0.00    -0.024 C 
ATOM      4  C   UNL     1       4.551   3.172 -22.632  0.00  0.00    +0.065 C 
ATOM      5  C   UNL     1       3.378   3.689 -22.845  0.00  0.00    +0.112 C 
ATOM      6  O   UNL     1       4.364   4.524 -22.703  0.00  0.00    -0.360 OA
ATOM      7  C   UNL     1       3.162   4.969 -22.918  0.00  0.00    +0.097 C 
ATOM      8  C   UNL     1       2.039   5.591 -23.125  0.00  0.00    +0.038 C 
ATOM      9  C   UNL     1       0.856   5.087 -23.310  0.00  0.00    +0.011 C 
ATOM     10  C   UNL     1       0.501   3.837 -23.334  0.00  0.00    +0.049 C 
ATOM     11  C   UNL     1       1.244   2.781 -23.178  0.00  0.00    +0.190 C 
ATOM     12  O   UNL     1       0.479   1.734 -23.276  0.00  0.00    -0.460 OA
ATOM     13  C   UNL     1      -0.735   2.142 -23.493  0.00  0.00    +0.316 C 
ATOM     14  O   UNL     1      -1.780   1.384 -23.647  0.00  0.00    -0.250 OA
ATOM     15  C   UNL     1      -0.721   3.441 -23.528  0.00  0.00    +0.149 C 
ATOM     16  C   UNL     1       3.696   6.153 -22.862  0.00  0.00    +0.044 C 
ATOM     17  C   UNL     1       2.524   2.715 -22.960  0.00  0.00    +0.090 C 
ENDROOT
BRANCH  15  18
ATOM     18  C   UNL     1      -1.751   4.211 -23.724  0.00  0.00    +0.146 C 
BRANCH  18  19
ATOM     19  N   UNL     1      -2.880   3.950 -23.134  0.00  0.00    +0.236 N 
ATOM     20  H   UNL     1      -3.887   3.795 -23.182  0.00  0.00    +0.203 HD
ATOM     21  C   UNL     1      -3.974   3.868 -23.832  0.00  0.00    +0.131 C 
ATOM     22  C   UNL     1      -5.102   3.607 -23.242  0.00  0.00    +0.051 C 
ATOM     23  C   UNL     1      -5.138   3.428 -21.955  0.00  0.00    +0.010 C 
ATOM     24  C   UNL     1      -4.043   3.510 -21.257  0.00  0.00    +0.051 C 
ATOM     25  C   UNL     1      -2.915   3.772 -21.847  0.00  0.00    +0.131 C 
ENDBRANCH  18  19
ENDBRANCH  15  18
TORSDOF 2
ENDMDL
MODEL 4
REMARK VINA RESULT:    -9.915      2.121      6.862
REMARK INTER + INTRA:         -10.809
REMARK INTER:                 -10.326
REMARK INTRA:                  -0.483
REMARK UNBOUND:                 0.266
REMARK  Name = ZINC000006755466
REMARK  4 active torsions:
REMARK  status: ('A' for Active; 'I' for Inactive)
REMARK    1  A    between atoms: C_1  and  C_2
REMARK    2  A    between atoms: C_7  and  C_8
REMARK    3  A    between atoms: C_16  and  C_17
REMARK    4  A    between atoms: C_17  and  N_18
REMARK                            x       y       z     vdW  Elec       q    Type
REMARK                         _______ _______ _______ _____ _____    ______ ____
ROOT
ATOM      1  C   UNL     1       3.190   6.042 -23.251  0.00  0.00    +0.039 C 
ATOM      2  C   UNL     1       3.630   4.857 -22.946  0.00  0.00    -0.067 C 
ATOM      3  C   UNL     1       4.870   4.539 -22.715  0.00  0.00    -0.024 C 
ATOM      4  C   UNL     1       4.915   3.269 -22.445  0.00  0.00    +0.065 C 
ATOM      5  C   UNL     1       3.704   2.802 -22.509  0.00  0.00    +0.112 C 
ATOM      6  O   UNL     1       4.640   1.951 -22.207  0.00  0.00    -0.360 OA
ATOM      7  C   UNL     1       3.404   1.555 -22.290  0.00  0.00    +0.097 C 
ATOM      8  C   UNL     1       2.237   0.983 -22.327  0.00  0.00    +0.038 C 
ATOM      9  C   UNL     1       1.082   1.516 -22.591  0.00  0.00    +0.011 C 
ATOM     10  C   UNL     1       0.807   2.752 -22.885  0.00  0.00    +0.049 C 
ATOM     11  C   UNL     1       1.621   3.761 -22.986  0.00  0.00    +0.190 C 
ATOM     12  O   UNL     1       0.921   4.812 -23.298  0.00  0.00    -0.460 OA
ATOM     13  C   UNL     1      -0.325   4.452 -23.389  0.00  0.00    +0.316 C 
ATOM     14  O   UNL     1      -1.325   5.229 -23.684  0.00  0.00    -0.250 OA
ATOM     15  C   UNL     1      -0.394   3.179 -23.134  0.00  0.00    +0.149 C 
ATOM     16  C   UNL     1       3.864   0.378 -21.984  0.00  0.00    +0.044 C 
ATOM     17  C   UNL     1       2.910   3.784 -22.819  0.00  0.00    +0.090 C 
ENDROOT
BRANCH  15  18
ATOM     18  C   UNL     1      -1.478   2.460 -23.129  0.00  0.00    +0.146 C 
BRANCH  18  19
ATOM     19  N   UNL     1      -2.486   2.807 -22.385  0.00  0.00    +0.236 N 
ATOM     20  H   UNL     1      -3.476   3.035 -22.289  0.00  0.00    +0.203 HD
ATOM     21  C   UNL     1      -3.662   2.962 -22.917  0.00  0.00    +0.131 C 
ATOM     22  C   UNL     1      -4.670   3.310 -22.174  0.00  0.00    +0.051 C 
ATOM     23  C   UNL     1      -4.503   3.502 -20.899  0.00  0.00    +0.010 C 
ATOM     24  C   UNL     1      -3.326   3.347 -20.367  0.00  0.00    +0.051 C 
ATOM     25  C   UNL     1      -2.318   2.999 -21.111  0.00  0.00    +0.131 C 
ENDBRANCH  18  19
ENDBRANCH  15  18
TORSDOF 2
ENDMDL
