MODEL 1
REMARK VINA RESULT:    -9.513      0.000      0.000
REMARK INTER + INTRA:         -10.954
REMARK INTER:                 -11.969
REMARK INTRA:                   1.015
REMARK UNBOUND:                 1.896
REMARK  Name = ZINC000004610556
REMARK  12 active torsions:
REMARK  status: ('A' for Active; 'I' for Inactive)
REMARK    1  A    between atoms: C_1  and  C_2
REMARK    2  A    between atoms: C_2  and  N_3
REMARK    3  A    between atoms: C_8  and  O_9
REMARK    4  A    between atoms: O_9  and  C_10
REMARK    5  A    between atoms: C_11  and  O_12
REMARK    6  A    between atoms: O_12  and  C_13
REMARK    7  A    between atoms: C_16  and  C_17
REMARK    8  A    between atoms: C_17  and  C_18
REMARK    9  A    between atoms: C_21  and  O_22
REMARK   10  A    between atoms: O_22  and  C_23
REMARK   11  A    between atoms: C_24  and  O_25
REMARK   12  A    between atoms: O_25  and  C_26
REMARK                            x       y       z     vdW  Elec       q    Type
REMARK                         _______ _______ _______ _____ _____    ______ ____
ROOT
ATOM      1  N   UNL     1       0.674   1.721 -22.069  0.00  0.00    +0.241 N 
ATOM      2  H   UNL     1       1.303   1.183 -21.471  0.00  0.00    +0.204 HD
ATOM      3  C   UNL     1      -0.168   1.279 -21.182  0.00  0.00    +0.136 C 
ATOM      4  C   UNL     1      -1.427   1.590 -21.268  0.00  0.00    +0.086 C 
ATOM      5  C   UNL     1      -1.845   2.343 -22.241  0.00  0.00    -0.030 A 
ATOM      6  C   UNL     1      -3.104   2.655 -22.328  0.00  0.00    +0.053 A 
ATOM      7  C   UNL     1      -3.521   3.409 -23.302  0.00  0.00    +0.162 A 
ATOM      8  C   UNL     1      -2.680   3.851 -24.188  0.00  0.00    +0.162 A 
ATOM      9  C   UNL     1      -1.420   3.539 -24.101  0.00  0.00    +0.058 A 
ATOM     10  C   UNL     1      -1.003   2.786 -23.128  0.00  0.00    +0.008 A 
ATOM     11  C   UNL     1       0.256   2.474 -23.041  0.00  0.00    +0.100 C 
ENDROOT
BRANCH   8  12
ATOM     12  O   UNL     1      -3.097   4.605 -25.162  0.00  0.00    -0.491 OA
ATOM     13  C   UNL     1      -3.406   4.075 -26.308  0.00  0.00    +0.277 C 
ENDBRANCH   8  12
BRANCH   7  14
ATOM     14  O   UNL     1      -4.780   3.721 -23.388  0.00  0.00    -0.491 OA
ATOM     15  C   UNL     1      -5.594   3.415 -22.421  0.00  0.00    +0.277 C 
ENDBRANCH   7  14
BRANCH   1  17
ATOM     16  C   UNL     1       2.533   1.443 -20.829  0.00  0.00    +0.060 C 
ATOM     17  C   UNL     1       1.933   1.409 -21.982  0.00  0.00    +0.128 C 
ENDBRANCH   1  17
BRANCH  11  18
ATOM     18  C   UNL     1       1.098   2.917 -23.929  0.00  0.00    +0.094 C 
BRANCH  18  19
ATOM     19  C   UNL     1       2.017   3.769 -23.584  0.00  0.00    -0.038 A 
ATOM     20  C   UNL     1       1.682   4.955 -23.171  0.00  0.00    +0.007 A 
ATOM     21  C   UNL     1       2.601   5.807 -22.826  0.00  0.00    +0.049 A 
ATOM     22  C   UNL     1       3.856   5.473 -22.895  0.00  0.00    +0.161 A 
ATOM     23  C   UNL     1       4.191   4.287 -23.308  0.00  0.00    +0.162 A 
ATOM     24  C   UNL     1       3.272   3.435 -23.652  0.00  0.00    +0.053 A 
BRANCH  22  25
ATOM     25  O   UNL     1       4.775   6.325 -22.550  0.00  0.00    -0.491 OA
ATOM     26  C   UNL     1       4.441   7.460 -22.011  0.00  0.00    +0.277 C 
ENDBRANCH  22  25
BRANCH  23  27
ATOM     27  O   UNL     1       5.445   3.953 -23.376  0.00  0.00    -0.491 OA
ATOM     28  C   UNL     1       5.887   2.941 -22.691  0.00  0.00    +0.277 C 
ENDBRANCH  23  27
ENDBRANCH  18  19
ENDBRANCH  11  18
TORSDOF 7
ENDMDL
MODEL 2
REMARK VINA RESULT:    -9.346      1.941      3.697
REMARK INTER + INTRA:         -10.727
REMARK INTER:                 -11.860
REMARK INTRA:                   1.133
REMARK UNBOUND:                 1.896
REMARK  Name = ZINC000004610556
REMARK  12 active torsions:
REMARK  status: ('A' for Active; 'I' for Inactive)
REMARK    1  A    between atoms: C_1  and  C_2
REMARK    2  A    between atoms: C_2  and  N_3
REMARK    3  A    between atoms: C_8  and  O_9
REMARK    4  A    between atoms: O_9  and  C_10
REMARK    5  A    between atoms: C_11  and  O_12
REMARK    6  A    between atoms: O_12  and  C_13
REMARK    7  A    between atoms: C_16  and  C_17
REMARK    8  A    between atoms: C_17  and  C_18
REMARK    9  A    between atoms: C_21  and  O_22
REMARK   10  A    between atoms: O_22  and  C_23
REMARK   11  A    between atoms: C_24  and  O_25
REMARK   12  A    between atoms: O_25  and  C_26
REMARK                            x       y       z     vdW  Elec       q    Type
REMARK                         _______ _______ _______ _____ _____    ______ ____
ROOT
ATOM      1  N   UNL     1      -0.433   3.732 -25.106  0.00  0.00    +0.241 N 
ATOM      2  H   UNL     1       0.104   3.636 -25.968  0.00  0.00    +0.204 HD
ATOM      3  C   UNL     1      -1.388   3.465 -25.947  0.00  0.00    +0.136 C 
ATOM      4  C   UNL     1      -2.619   3.396 -25.534  0.00  0.00    +0.086 C 
ATOM      5  C   UNL     1      -2.895   3.595 -24.280  0.00  0.00    -0.030 A 
ATOM      6  C   UNL     1      -4.126   3.526 -23.866  0.00  0.00    +0.053 A 
ATOM      7  C   UNL     1      -4.402   3.725 -22.612  0.00  0.00    +0.162 A 
ATOM      8  C   UNL     1      -3.448   3.992 -21.770  0.00  0.00    +0.162 A 
ATOM      9  C   UNL     1      -2.217   4.061 -22.184  0.00  0.00    +0.058 A 
ATOM     10  C   UNL     1      -1.941   3.862 -23.439  0.00  0.00    +0.008 A 
ATOM     11  C   UNL     1      -0.710   3.931 -23.852  0.00  0.00    +0.100 C 
ENDROOT
BRANCH   8  12
ATOM     12  O   UNL     1      -3.724   4.191 -20.516  0.00  0.00    -0.491 OA
ATOM     13  C   UNL     1      -3.042   3.576 -19.595  0.00  0.00    +0.277 C 
ENDBRANCH   8  12
BRANCH   7  14
ATOM     14  O   UNL     1      -5.632   3.656 -22.199  0.00  0.00    -0.491 OA
ATOM     15  C   UNL     1      -6.076   2.560 -21.658  0.00  0.00    +0.277 C 
ENDBRANCH   7  14
BRANCH   1  17
ATOM     16  C   UNL     1       1.398   2.733 -25.954  0.00  0.00    +0.060 C 
ATOM     17  C   UNL     1       0.798   3.801 -25.519  0.00  0.00    +0.128 C 
ENDBRANCH   1  17
BRANCH  11  18
ATOM     18  C   UNL     1       0.245   4.199 -23.010  0.00  0.00    +0.094 C 
BRANCH  18  19
ATOM     19  C   UNL     1       1.134   3.294 -22.726  0.00  0.00    -0.038 A 
ATOM     20  C   UNL     1       0.758   2.095 -22.392  0.00  0.00    +0.007 A 
ATOM     21  C   UNL     1       1.647   1.190 -22.109  0.00  0.00    +0.049 A 
ATOM     22  C   UNL     1       2.912   1.484 -22.159  0.00  0.00    +0.161 A 
ATOM     23  C   UNL     1       3.289   2.682 -22.494  0.00  0.00    +0.162 A 
ATOM     24  C   UNL     1       2.399   3.587 -22.777  0.00  0.00    +0.053 A 
BRANCH  22  25
ATOM     25  O   UNL     1       3.802   0.580 -21.876  0.00  0.00    -0.491 OA
ATOM     26  C   UNL     1       4.034   0.261 -20.637  0.00  0.00    +0.277 C 
ENDBRANCH  22  25
BRANCH  23  27
ATOM     27  O   UNL     1       4.554   2.976 -22.545  0.00  0.00    -0.491 OA
ATOM     28  C   UNL     1       4.949   4.041 -23.177  0.00  0.00    +0.277 C 
ENDBRANCH  23  27
ENDBRANCH  18  19
ENDBRANCH  11  18
TORSDOF 7
ENDMDL
MODEL 3
REMARK VINA RESULT:    -8.943      0.806      1.915
REMARK INTER + INTRA:         -10.184
REMARK INTER:                 -11.813
REMARK INTRA:                   1.629
REMARK UNBOUND:                 1.896
REMARK  Name = ZINC000004610556
REMARK  12 active torsions:
REMARK  status: ('A' for Active; 'I' for Inactive)
REMARK    1  A    between atoms: C_1  and  C_2
REMARK    2  A    between atoms: C_2  and  N_3
REMARK    3  A    between atoms: C_8  and  O_9
REMARK    4  A    between atoms: O_9  and  C_10
REMARK    5  A    between atoms: C_11  and  O_12
REMARK    6  A    between atoms: O_12  and  C_13
REMARK    7  A    between atoms: C_16  and  C_17
REMARK    8  A    between atoms: C_17  and  C_18
REMARK    9  A    between atoms: C_21  and  O_22
REMARK   10  A    between atoms: O_22  and  C_23
REMARK   11  A    between atoms: C_24  and  O_25
REMARK   12  A    between atoms: O_25  and  C_26
REMARK                            x       y       z     vdW  Elec       q    Type
REMARK                         _______ _______ _______ _____ _____    ______ ____
ROOT
ATOM      1  N   UNL     1       0.958   1.589 -21.984  0.00  0.00    +0.241 N 
ATOM      2  H   UNL     1       1.552   1.125 -21.296  0.00  0.00    +0.204 HD
ATOM      3  C   UNL     1       0.120   1.467 -20.998  0.00  0.00    +0.136 C 
ATOM      4  C   UNL     1      -1.097   1.906 -21.119  0.00  0.00    +0.086 C 
ATOM      5  C   UNL     1      -1.476   2.469 -22.228  0.00  0.00    -0.030 A 
ATOM      6  C   UNL     1      -2.694   2.909 -22.351  0.00  0.00    +0.053 A 
ATOM      7  C   UNL     1      -3.073   3.471 -23.460  0.00  0.00    +0.162 A 
ATOM      8  C   UNL     1      -2.235   3.594 -24.446  0.00  0.00    +0.162 A 
ATOM      9  C   UNL     1      -1.018   3.154 -24.323  0.00  0.00    +0.058 A 
ATOM     10  C   UNL     1      -0.639   2.592 -23.215  0.00  0.00    +0.008 A 
ATOM     11  C   UNL     1       0.578   2.152 -23.092  0.00  0.00    +0.100 C 
ENDROOT
BRANCH   8  12
ATOM     12  O   UNL     1      -2.615   4.157 -25.555  0.00  0.00    -0.491 OA
ATOM     13  C   UNL     1      -2.860   3.427 -26.604  0.00  0.00    +0.277 C 
ENDBRANCH   8  12
BRANCH   7  14
ATOM     14  O   UNL     1      -4.290   3.911 -23.582  0.00  0.00    -0.491 OA
ATOM     15  C   UNL     1      -5.196   3.566 -22.716  0.00  0.00    +0.277 C 
ENDBRANCH   7  14
BRANCH   1  17
ATOM     16  C   UNL     1       2.787   1.241 -20.718  0.00  0.00    +0.060 C 
ATOM     17  C   UNL     1       2.176   1.149 -21.862  0.00  0.00    +0.128 C 
ENDBRANCH   1  17
BRANCH  11  18
ATOM     18  C   UNL     1       1.417   2.275 -24.080  0.00  0.00    +0.094 C 
BRANCH  18  19
ATOM     19  C   UNL     1       2.598   2.775 -23.871  0.00  0.00    -0.038 A 
ATOM     20  C   UNL     1       3.659   2.092 -24.188  0.00  0.00    +0.007 A 
ATOM     21  C   UNL     1       4.840   2.593 -23.979  0.00  0.00    +0.049 A 
ATOM     22  C   UNL     1       4.961   3.775 -23.453  0.00  0.00    +0.161 A 
ATOM     23  C   UNL     1       3.901   4.458 -23.136  0.00  0.00    +0.162 A 
ATOM     24  C   UNL     1       2.720   3.958 -23.345  0.00  0.00    +0.053 A 
BRANCH  22  25
ATOM     25  O   UNL     1       6.142   4.276 -23.244  0.00  0.00    -0.491 OA
ATOM     26  C   UNL     1       7.199   3.535 -23.397  0.00  0.00    +0.277 C 
ENDBRANCH  22  25
BRANCH  23  27
ATOM     27  O   UNL     1       4.023   5.641 -22.611  0.00  0.00    -0.491 OA
ATOM     28  C   UNL     1       3.048   6.495 -22.702  0.00  0.00    +0.277 C 
ENDBRANCH  23  27
ENDBRANCH  18  19
ENDBRANCH  11  18
TORSDOF 7
ENDMDL
MODEL 4
REMARK VINA RESULT:    -8.338      1.476      6.791
REMARK INTER + INTRA:          -9.366
REMARK INTER:                 -10.608
REMARK INTRA:                   1.242
REMARK UNBOUND:                 1.896
REMARK  Name = ZINC000004610556
REMARK  12 active torsions:
REMARK  status: ('A' for Active; 'I' for Inactive)
REMARK    1  A    between atoms: C_1  and  C_2
REMARK    2  A    between atoms: C_2  and  N_3
REMARK    3  A    between atoms: C_8  and  O_9
REMARK    4  A    between atoms: O_9  and  C_10
REMARK    5  A    between atoms: C_11  and  O_12
REMARK    6  A    between atoms: O_12  and  C_13
REMARK    7  A    between atoms: C_16  and  C_17
REMARK    8  A    between atoms: C_17  and  C_18
REMARK    9  A    between atoms: C_21  and  O_22
REMARK   10  A    between atoms: O_22  and  C_23
REMARK   11  A    between atoms: C_24  and  O_25
REMARK   12  A    between atoms: O_25  and  C_26
REMARK                            x       y       z     vdW  Elec       q    Type
REMARK                         _______ _______ _______ _____ _____    ______ ____
ROOT
ATOM      1  N   UNL     1      -1.156   2.527 -21.684  0.00  0.00    +0.241 N 
ATOM      2  H   UNL     1      -2.047   2.239 -21.278  0.00  0.00    +0.204 HD
ATOM      3  C   UNL     1      -0.775   1.492 -20.997  0.00  0.00    +0.136 C 
ATOM      4  C   UNL     1       0.475   1.133 -21.001  0.00  0.00    +0.086 C 
ATOM      5  C   UNL     1       1.343   1.810 -21.691  0.00  0.00    -0.030 A 
ATOM      6  C   UNL     1       2.593   1.452 -21.695  0.00  0.00    +0.053 A 
ATOM      7  C   UNL     1       3.461   2.129 -22.386  0.00  0.00    +0.162 A 
ATOM      8  C   UNL     1       3.080   3.165 -23.073  0.00  0.00    +0.162 A 
ATOM      9  C   UNL     1       1.829   3.523 -23.069  0.00  0.00    +0.058 A 
ATOM     10  C   UNL     1       0.961   2.846 -22.378  0.00  0.00    +0.008 A 
ATOM     11  C   UNL     1      -0.288   3.204 -22.374  0.00  0.00    +0.100 C 
ENDROOT
BRANCH   8  12
ATOM     12  O   UNL     1       3.948   3.843 -23.764  0.00  0.00    -0.491 OA
ATOM     13  C   UNL     1       4.550   4.864 -23.229  0.00  0.00    +0.277 C 
ENDBRANCH   8  12
BRANCH   7  14
ATOM     14  O   UNL     1       4.710   1.771 -22.390  0.00  0.00    -0.491 OA
ATOM     15  C   UNL     1       5.092   0.738 -21.699  0.00  0.00    +0.277 C 
ENDBRANCH   7  14
BRANCH   1  17
ATOM     16  C   UNL     1      -2.960   3.300 -20.580  0.00  0.00    +0.060 C 
ATOM     17  C   UNL     1      -2.406   2.886 -21.680  0.00  0.00    +0.128 C 
ENDBRANCH   1  17
BRANCH  11  18
ATOM     18  C   UNL     1      -0.669   4.241 -23.062  0.00  0.00    +0.094 C 
BRANCH  18  19
ATOM     19  C   UNL     1      -1.475   4.091 -24.070  0.00  0.00    -0.038 A 
ATOM     20  C   UNL     1      -1.048   3.541 -25.169  0.00  0.00    +0.007 A 
ATOM     21  C   UNL     1      -1.854   3.391 -26.177  0.00  0.00    +0.049 A 
ATOM     22  C   UNL     1      -3.088   3.791 -26.088  0.00  0.00    +0.161 A 
ATOM     23  C   UNL     1      -3.516   4.340 -24.990  0.00  0.00    +0.162 A 
ATOM     24  C   UNL     1      -2.709   4.490 -23.982  0.00  0.00    +0.053 A 
BRANCH  22  25
ATOM     25  O   UNL     1      -3.894   3.641 -27.096  0.00  0.00    -0.491 OA
ATOM     26  C   UNL     1      -3.417   3.394 -28.280  0.00  0.00    +0.277 C 
ENDBRANCH  22  25
BRANCH  23  27
ATOM     27  O   UNL     1      -4.749   4.740 -24.901  0.00  0.00    -0.491 OA
ATOM     28  C   UNL     1      -5.564   4.155 -24.075  0.00  0.00    +0.277 C 
ENDBRANCH  23  27
ENDBRANCH  18  19
ENDBRANCH  11  18
TORSDOF 7
ENDMDL
MODEL 5
REMARK VINA RESULT:    -8.077      1.635      2.366
REMARK INTER + INTRA:          -9.014
REMARK INTER:                  -9.774
REMARK INTRA:                   0.760
REMARK UNBOUND:                 1.896
REMARK  Name = ZINC000004610556
REMARK  12 active torsions:
REMARK  status: ('A' for Active; 'I' for Inactive)
REMARK    1  A    between atoms: C_1  and  C_2
REMARK    2  A    between atoms: C_2  and  N_3
REMARK    3  A    between atoms: C_8  and  O_9
REMARK    4  A    between atoms: O_9  and  C_10
REMARK    5  A    between atoms: C_11  and  O_12
REMARK    6  A    between atoms: O_12  and  C_13
REMARK    7  A    between atoms: C_16  and  C_17
REMARK    8  A    between atoms: C_17  and  C_18
REMARK    9  A    between atoms: C_21  and  O_22
REMARK   10  A    between atoms: O_22  and  C_23
REMARK   11  A    between atoms: C_24  and  O_25
REMARK   12  A    between atoms: O_25  and  C_26
REMARK                            x       y       z     vdW  Elec       q    Type
REMARK                         _______ _______ _______ _____ _____    ______ ____
ROOT
ATOM      1  N   UNL     1       3.002   1.608 -21.277  0.00  0.00    +0.241 N 
ATOM      2  H   UNL     1       3.680   1.293 -20.583  0.00  0.00    +0.204 HD
ATOM      3  C   UNL     1       2.203   1.263 -20.312  0.00  0.00    +0.136 C 
ATOM      4  C   UNL     1       0.917   1.390 -20.455  0.00  0.00    +0.086 C 
ATOM      5  C   UNL     1       0.431   1.863 -21.564  0.00  0.00    -0.030 A 
ATOM      6  C   UNL     1      -0.855   1.990 -21.708  0.00  0.00    +0.053 A 
ATOM      7  C   UNL     1      -1.342   2.462 -22.817  0.00  0.00    +0.162 A 
ATOM      8  C   UNL     1      -0.542   2.807 -23.782  0.00  0.00    +0.162 A 
ATOM      9  C   UNL     1       0.744   2.680 -23.638  0.00  0.00    +0.058 A 
ATOM     10  C   UNL     1       1.230   2.208 -22.529  0.00  0.00    +0.008 A 
ATOM     11  C   UNL     1       2.515   2.080 -22.386  0.00  0.00    +0.100 C 
ENDROOT
BRANCH   8  12
ATOM     12  O   UNL     1      -1.029   3.279 -24.891  0.00  0.00    -0.491 OA
ATOM     13  C   UNL     1      -0.228   3.721 -25.816  0.00  0.00    +0.277 C 
ENDBRANCH   8  12
BRANCH   7  14
ATOM     14  O   UNL     1      -2.627   2.589 -22.960  0.00  0.00    -0.491 OA
ATOM     15  C   UNL     1      -3.335   3.142 -22.020  0.00  0.00    +0.277 C 
ENDBRANCH   7  14
BRANCH   1  17
ATOM     16  C   UNL     1       4.796   0.327 -20.819  0.00  0.00    +0.060 C 
ATOM     17  C   UNL     1       4.289   1.481 -21.133  0.00  0.00    +0.128 C 
ENDBRANCH   1  17
BRANCH  11  18
ATOM     18  C   UNL     1       3.315   2.426 -23.352  0.00  0.00    +0.094 C 
BRANCH  18  19
ATOM     19  C   UNL     1       4.142   3.415 -23.189  0.00  0.00    -0.038 A 
ATOM     20  C   UNL     1       3.693   4.588 -22.849  0.00  0.00    +0.007 A 
ATOM     21  C   UNL     1       4.520   5.578 -22.686  0.00  0.00    +0.049 A 
ATOM     22  C   UNL     1       5.795   5.396 -22.864  0.00  0.00    +0.161 A 
ATOM     23  C   UNL     1       6.243   4.224 -23.204  0.00  0.00    +0.162 A 
ATOM     24  C   UNL     1       5.417   3.234 -23.367  0.00  0.00    +0.053 A 
BRANCH  22  25
ATOM     25  O   UNL     1       6.621   6.385 -22.701  0.00  0.00    -0.491 OA
ATOM     26  C   UNL     1       6.647   7.034 -21.574  0.00  0.00    +0.277 C 
ENDBRANCH  22  25
BRANCH  23  27
ATOM     27  O   UNL     1       7.518   4.042 -23.382  0.00  0.00    -0.491 OA
ATOM     28  C   UNL     1       7.943   3.386 -24.420  0.00  0.00    +0.277 C 
ENDBRANCH  23  27
ENDBRANCH  18  19
ENDBRANCH  11  18
TORSDOF 7
ENDMDL
MODEL 6
REMARK VINA RESULT:    -7.841      1.093      6.907
REMARK INTER + INTRA:          -8.694
REMARK INTER:                  -9.893
REMARK INTRA:                   1.199
REMARK UNBOUND:                 1.896
REMARK  Name = ZINC000004610556
REMARK  12 active torsions:
REMARK  status: ('A' for Active; 'I' for Inactive)
REMARK    1  A    between atoms: C_1  and  C_2
REMARK    2  A    between atoms: C_2  and  N_3
REMARK    3  A    between atoms: C_8  and  O_9
REMARK    4  A    between atoms: O_9  and  C_10
REMARK    5  A    between atoms: C_11  and  O_12
REMARK    6  A    between atoms: O_12  and  C_13
REMARK    7  A    between atoms: C_16  and  C_17
REMARK    8  A    between atoms: C_17  and  C_18
REMARK    9  A    between atoms: C_21  and  O_22
REMARK   10  A    between atoms: O_22  and  C_23
REMARK   11  A    between atoms: C_24  and  O_25
REMARK   12  A    between atoms: O_25  and  C_26
REMARK                            x       y       z     vdW  Elec       q    Type
REMARK                         _______ _______ _______ _____ _____    ______ ____
ROOT
ATOM      1  N   UNL     1       0.776   1.889 -22.549  0.00  0.00    +0.241 N 
ATOM      2  H   UNL     1       0.207   1.048 -22.441  0.00  0.00    +0.204 HD
ATOM      3  C   UNL     1       1.706   0.982 -22.502  0.00  0.00    +0.136 C 
ATOM      4  C   UNL     1       2.956   1.327 -22.593  0.00  0.00    +0.086 C 
ATOM      5  C   UNL     1       3.275   2.580 -22.730  0.00  0.00    -0.030 A 
ATOM      6  C   UNL     1       4.526   2.926 -22.820  0.00  0.00    +0.053 A 
ATOM      7  C   UNL     1       4.845   4.179 -22.958  0.00  0.00    +0.162 A 
ATOM      8  C   UNL     1       3.914   5.086 -23.005  0.00  0.00    +0.162 A 
ATOM      9  C   UNL     1       2.664   4.739 -22.914  0.00  0.00    +0.058 A 
ATOM     10  C   UNL     1       2.345   3.487 -22.777  0.00  0.00    +0.008 A 
ATOM     11  C   UNL     1       1.096   3.141 -22.687  0.00  0.00    +0.100 C 
ENDROOT
BRANCH   8  12
ATOM     12  O   UNL     1       4.234   6.338 -23.142  0.00  0.00    -0.491 OA
ATOM     13  C   UNL     1       3.980   7.183 -22.186  0.00  0.00    +0.277 C 
ENDBRANCH   8  12
BRANCH   7  14
ATOM     14  O   UNL     1       6.094   4.525 -23.048  0.00  0.00    -0.491 OA
ATOM     15  C   UNL     1       6.987   3.649 -23.404  0.00  0.00    +0.277 C 
ENDBRANCH   7  14
BRANCH   1  17
ATOM     16  C   UNL     1      -0.941   1.078 -21.338  0.00  0.00    +0.060 C 
ATOM     17  C   UNL     1      -0.475   1.543 -22.459  0.00  0.00    +0.128 C 
ENDBRANCH   1  17
BRANCH  11  18
ATOM     18  C   UNL     1       0.164   4.048 -22.734  0.00  0.00    +0.094 C 
BRANCH  18  19
ATOM     19  C   UNL     1      -0.790   3.955 -23.610  0.00  0.00    -0.038 A 
ATOM     20  C   UNL     1      -0.507   3.730 -24.860  0.00  0.00    +0.007 A 
ATOM     21  C   UNL     1      -1.461   3.636 -25.736  0.00  0.00    +0.049 A 
ATOM     22  C   UNL     1      -2.700   3.768 -25.365  0.00  0.00    +0.161 A 
ATOM     23  C   UNL     1      -2.984   3.993 -24.117  0.00  0.00    +0.162 A 
ATOM     24  C   UNL     1      -2.029   4.086 -23.240  0.00  0.00    +0.053 A 
BRANCH  22  25
ATOM     25  O   UNL     1      -3.655   3.674 -26.242  0.00  0.00    -0.491 OA
ATOM     26  C   UNL     1      -3.373   3.438 -27.489  0.00  0.00    +0.277 C 
ENDBRANCH  22  25
BRANCH  23  27
ATOM     27  O   UNL     1      -4.223   4.124 -23.745  0.00  0.00    -0.491 OA
ATOM     28  C   UNL     1      -4.686   3.412 -22.762  0.00  0.00    +0.277 C 
ENDBRANCH  23  27
ENDBRANCH  18  19
ENDBRANCH  11  18
TORSDOF 7
ENDMDL
MODEL 7
REMARK VINA RESULT:    -7.810      1.713      2.960
REMARK INTER + INTRA:          -8.654
REMARK INTER:                 -10.623
REMARK INTRA:                   1.969
REMARK UNBOUND:                 1.896
REMARK  Name = ZINC000004610556
REMARK  12 active torsions:
REMARK  status: ('A' for Active; 'I' for Inactive)
REMARK    1  A    between atoms: C_1  and  C_2
REMARK    2  A    between atoms: C_2  and  N_3
REMARK    3  A    between atoms: C_8  and  O_9
REMARK    4  A    between atoms: O_9  and  C_10
REMARK    5  A    between atoms: C_11  and  O_12
REMARK    6  A    between atoms: O_12  and  C_13
REMARK    7  A    between atoms: C_16  and  C_17
REMARK    8  A    between atoms: C_17  and  C_18
REMARK    9  A    between atoms: C_21  and  O_22
REMARK   10  A    between atoms: O_22  and  C_23
REMARK   11  A    between atoms: C_24  and  O_25
REMARK   12  A    between atoms: O_25  and  C_26
REMARK                            x       y       z     vdW  Elec       q    Type
REMARK                         _______ _______ _______ _____ _____    ______ ____
ROOT
ATOM      1  N   UNL     1       0.543   2.872 -25.099  0.00  0.00    +0.241 N 
ATOM      2  H   UNL     1       1.160   2.917 -25.910  0.00  0.00    +0.204 HD
ATOM      3  C   UNL     1      -0.278   3.342 -25.991  0.00  0.00    +0.136 C 
ATOM      4  C   UNL     1      -1.510   3.602 -25.668  0.00  0.00    +0.086 C 
ATOM      5  C   UNL     1      -1.921   3.392 -24.453  0.00  0.00    -0.030 A 
ATOM      6  C   UNL     1      -3.154   3.652 -24.130  0.00  0.00    +0.053 A 
ATOM      7  C   UNL     1      -3.565   3.441 -22.915  0.00  0.00    +0.162 A 
ATOM      8  C   UNL     1      -2.744   2.971 -22.023  0.00  0.00    +0.162 A 
ATOM      9  C   UNL     1      -1.512   2.712 -22.346  0.00  0.00    +0.058 A 
ATOM     10  C   UNL     1      -1.101   2.922 -23.561  0.00  0.00    +0.008 A 
ATOM     11  C   UNL     1       0.131   2.662 -23.884  0.00  0.00    +0.100 C 
ENDROOT
BRANCH   8  12
ATOM     12  O   UNL     1      -3.155   2.761 -20.808  0.00  0.00    -0.491 OA
ATOM     13  C   UNL     1      -2.993   3.676 -19.898  0.00  0.00    +0.277 C 
ENDBRANCH   8  12
BRANCH   7  14
ATOM     14  O   UNL     1      -4.797   3.701 -22.592  0.00  0.00    -0.491 OA
ATOM     15  C   UNL     1      -5.710   3.771 -23.514  0.00  0.00    +0.277 C 
ENDBRANCH   7  14
BRANCH   1  17
ATOM     16  C   UNL     1       2.045   1.608 -26.201  0.00  0.00    +0.060 C 
ATOM     17  C   UNL     1       1.775   2.613 -25.422  0.00  0.00    +0.128 C 
ENDBRANCH   1  17
BRANCH  11  18
ATOM     18  C   UNL     1       0.952   2.192 -22.992  0.00  0.00    +0.094 C 
BRANCH  18  19
ATOM     19  C   UNL     1       2.092   2.781 -22.783  0.00  0.00    -0.038 A 
ATOM     20  C   UNL     1       2.230   4.046 -23.052  0.00  0.00    +0.007 A 
ATOM     21  C   UNL     1       3.370   4.634 -22.844  0.00  0.00    +0.049 A 
ATOM     22  C   UNL     1       4.372   3.959 -22.366  0.00  0.00    +0.161 A 
ATOM     23  C   UNL     1       4.235   2.694 -22.097  0.00  0.00    +0.162 A 
ATOM     24  C   UNL     1       3.096   2.106 -22.306  0.00  0.00    +0.053 A 
BRANCH  22  25
ATOM     25  O   UNL     1       5.512   4.547 -22.157  0.00  0.00    -0.491 OA
ATOM     26  C   UNL     1       6.284   4.846 -23.160  0.00  0.00    +0.277 C 
ENDBRANCH  22  25
BRANCH  23  27
ATOM     27  O   UNL     1       5.238   2.019 -21.620  0.00  0.00    -0.491 OA
ATOM     28  C   UNL     1       5.052   0.818 -21.159  0.00  0.00    +0.277 C 
ENDBRANCH  23  27
ENDBRANCH  18  19
ENDBRANCH  11  18
TORSDOF 7
ENDMDL
MODEL 8
REMARK VINA RESULT:    -7.624      1.740      7.184
REMARK INTER + INTRA:          -8.401
REMARK INTER:                  -9.833
REMARK INTRA:                   1.432
REMARK UNBOUND:                 1.896
REMARK  Name = ZINC000004610556
REMARK  12 active torsions:
REMARK  status: ('A' for Active; 'I' for Inactive)
REMARK    1  A    between atoms: C_1  and  C_2
REMARK    2  A    between atoms: C_2  and  N_3
REMARK    3  A    between atoms: C_8  and  O_9
REMARK    4  A    between atoms: O_9  and  C_10
REMARK    5  A    between atoms: C_11  and  O_12
REMARK    6  A    between atoms: O_12  and  C_13
REMARK    7  A    between atoms: C_16  and  C_17
REMARK    8  A    between atoms: C_17  and  C_18
REMARK    9  A    between atoms: C_21  and  O_22
REMARK   10  A    between atoms: O_22  and  C_23
REMARK   11  A    between atoms: C_24  and  O_25
REMARK   12  A    between atoms: O_25  and  C_26
REMARK                            x       y       z     vdW  Elec       q    Type
REMARK                         _______ _______ _______ _____ _____    ______ ____
ROOT
ATOM      1  N   UNL     1       2.700   3.035 -24.350  0.00  0.00    +0.241 N 
ATOM      2  H   UNL     1       2.501   2.159 -24.835  0.00  0.00    +0.204 HD
ATOM      3  C   UNL     1       3.852   2.442 -24.243  0.00  0.00    +0.136 C 
ATOM      4  C   UNL     1       4.833   3.032 -23.628  0.00  0.00    +0.086 C 
ATOM      5  C   UNL     1       4.663   4.216 -23.121  0.00  0.00    -0.030 A 
ATOM      6  C   UNL     1       5.644   4.808 -22.506  0.00  0.00    +0.053 A 
ATOM      7  C   UNL     1       5.473   5.993 -21.998  0.00  0.00    +0.162 A 
ATOM      8  C   UNL     1       4.321   6.586 -22.105  0.00  0.00    +0.162 A 
ATOM      9  C   UNL     1       3.340   5.994 -22.720  0.00  0.00    +0.058 A 
ATOM     10  C   UNL     1       3.511   4.810 -23.228  0.00  0.00    +0.008 A 
ATOM     11  C   UNL     1       2.530   4.219 -23.842  0.00  0.00    +0.100 C 
ENDROOT
BRANCH   8  12
ATOM     12  O   UNL     1       4.151   7.770 -21.598  0.00  0.00    -0.491 OA
ATOM     13  C   UNL     1       4.129   8.813 -22.374  0.00  0.00    +0.277 C 
ENDBRANCH   8  12
BRANCH   7  14
ATOM     14  O   UNL     1       6.454   6.583 -21.384  0.00  0.00    -0.491 OA
ATOM     15  C   UNL     1       7.088   5.969 -20.430  0.00  0.00    +0.277 C 
ENDBRANCH   7  14
BRANCH   1  17
ATOM     16  C   UNL     1       1.922   1.873 -26.115  0.00  0.00    +0.060 C 
ATOM     17  C   UNL     1       1.718   2.443 -24.965  0.00  0.00    +0.128 C 
ENDBRANCH   1  17
BRANCH  11  18
ATOM     18  C   UNL     1       1.377   4.813 -23.949  0.00  0.00    +0.094 C 
BRANCH  18  19
ATOM     19  C   UNL     1       0.304   4.235 -23.498  0.00  0.00    -0.038 A 
ATOM     20  C   UNL     1       0.376   3.441 -22.471  0.00  0.00    +0.007 A 
ATOM     21  C   UNL     1      -0.697   2.863 -22.019  0.00  0.00    +0.049 A 
ATOM     22  C   UNL     1      -1.843   3.078 -22.595  0.00  0.00    +0.161 A 
ATOM     23  C   UNL     1      -1.915   3.872 -23.622  0.00  0.00    +0.162 A 
ATOM     24  C   UNL     1      -0.842   4.450 -24.073  0.00  0.00    +0.053 A 
BRANCH  22  25
ATOM     25  O   UNL     1      -2.916   2.500 -22.144  0.00  0.00    -0.491 OA
ATOM     26  C   UNL     1      -3.376   2.809 -20.968  0.00  0.00    +0.277 C 
ENDBRANCH  22  25
BRANCH  23  27
ATOM     27  O   UNL     1      -3.060   4.087 -24.198  0.00  0.00    -0.491 OA
ATOM     28  C   UNL     1      -3.315   3.557 -25.357  0.00  0.00    +0.277 C 
ENDBRANCH  23  27
ENDBRANCH  18  19
ENDBRANCH  11  18
TORSDOF 7
ENDMDL
MODEL 9
REMARK VINA RESULT:    -7.441      1.709      7.359
REMARK INTER + INTRA:          -8.155
REMARK INTER:                 -10.051
REMARK INTRA:                   1.896
REMARK UNBOUND:                 1.896
REMARK  Name = ZINC000004610556
REMARK  12 active torsions:
REMARK  status: ('A' for Active; 'I' for Inactive)
REMARK    1  A    between atoms: C_1  and  C_2
REMARK    2  A    between atoms: C_2  and  N_3
REMARK    3  A    between atoms: C_8  and  O_9
REMARK    4  A    between atoms: O_9  and  C_10
REMARK    5  A    between atoms: C_11  and  O_12
REMARK    6  A    between atoms: O_12  and  C_13
REMARK    7  A    between atoms: C_16  and  C_17
REMARK    8  A    between atoms: C_17  and  C_18
REMARK    9  A    between atoms: C_21  and  O_22
REMARK   10  A    between atoms: O_22  and  C_23
REMARK   11  A    between atoms: C_24  and  O_25
REMARK   12  A    between atoms: O_25  and  C_26
REMARK                            x       y       z     vdW  Elec       q    Type
REMARK                         _______ _______ _______ _____ _____    ______ ____
ROOT
ATOM      1  N   UNL     1       1.170   4.659 -23.724  0.00  0.00    +0.241 N 
ATOM      2  H   UNL     1       0.527   5.404 -23.993  0.00  0.00    +0.204 HD
ATOM      3  C   UNL     1       1.939   5.697 -23.574  0.00  0.00    +0.136 C 
ATOM      4  C   UNL     1       3.166   5.545 -23.173  0.00  0.00    +0.086 C 
ATOM      5  C   UNL     1       3.625   4.355 -22.923  0.00  0.00    -0.030 A 
ATOM      6  C   UNL     1       4.852   4.202 -22.522  0.00  0.00    +0.053 A 
ATOM      7  C   UNL     1       5.311   3.011 -22.272  0.00  0.00    +0.162 A 
ATOM      8  C   UNL     1       4.542   1.974 -22.422  0.00  0.00    +0.162 A 
ATOM      9  C   UNL     1       3.314   2.127 -22.822  0.00  0.00    +0.058 A 
ATOM     10  C   UNL     1       2.856   3.317 -23.073  0.00  0.00    +0.008 A 
ATOM     11  C   UNL     1       1.629   3.470 -23.473  0.00  0.00    +0.100 C 
ENDROOT
BRANCH   8  12
ATOM     12  O   UNL     1       5.000   0.783 -22.171  0.00  0.00    -0.491 OA
ATOM     13  C   UNL     1       4.763   0.224 -21.022  0.00  0.00    +0.277 C 
ENDBRANCH   8  12
BRANCH   7  14
ATOM     14  O   UNL     1       6.538   2.859 -21.871  0.00  0.00    -0.491 OA
ATOM     15  C   UNL     1       7.224   3.888 -21.474  0.00  0.00    +0.277 C 
ENDBRANCH   7  14
BRANCH   1  17
ATOM     16  C   UNL     1      -0.854   5.617 -23.486  0.00  0.00    +0.060 C 
ATOM     17  C   UNL     1      -0.058   4.812 -24.125  0.00  0.00    +0.128 C 
ENDBRANCH   1  17
BRANCH  11  18
ATOM     18  C   UNL     1       0.860   2.431 -23.623  0.00  0.00    +0.094 C 
BRANCH  18  19
ATOM     19  C   UNL     1      -0.271   2.363 -22.986  0.00  0.00    -0.038 A 
ATOM     20  C   UNL     1      -0.282   2.165 -21.701  0.00  0.00    +0.007 A 
ATOM     21  C   UNL     1      -1.412   2.096 -21.063  0.00  0.00    +0.049 A 
ATOM     22  C   UNL     1      -2.532   2.225 -21.711  0.00  0.00    +0.161 A 
ATOM     23  C   UNL     1      -2.522   2.423 -22.995  0.00  0.00    +0.162 A 
ATOM     24  C   UNL     1      -1.391   2.492 -23.632  0.00  0.00    +0.053 A 
BRANCH  22  25
ATOM     25  O   UNL     1      -3.663   2.156 -21.073  0.00  0.00    -0.491 OA
ATOM     26  C   UNL     1      -4.040   3.137 -20.308  0.00  0.00    +0.277 C 
ENDBRANCH  22  25
BRANCH  23  27
ATOM     27  O   UNL     1      -3.642   2.552 -23.642  0.00  0.00    -0.491 OA
ATOM     28  C   UNL     1      -3.911   3.663 -24.261  0.00  0.00    +0.277 C 
ENDBRANCH  23  27
ENDBRANCH  18  19
ENDBRANCH  11  18
TORSDOF 7
ENDMDL
