MODEL 1
REMARK VINA RESULT:   -10.406      0.000      0.000
REMARK INTER + INTRA:         -10.406
REMARK INTER:                 -10.406
REMARK INTRA:                   0.000
REMARK UNBOUND:                 0.000
REMARK  Name = ZINC000019816057
REMARK  2 active torsions:
REMARK  status: ('A' for Active; 'I' for Inactive)
REMARK    1  A    between atoms: C_1  and  C_2
REMARK    2  A    between atoms: C_14  and  C_15
REMARK                            x       y       z     vdW  Elec       q    Type
REMARK                         _______ _______ _______ _____ _____    ______ ____
ROOT
ATOM      1  C   UNL     1      -2.253   3.282 -23.687  0.00  0.00    +0.039 C 
ATOM      2  C   UNL     1      -1.998   3.648 -24.510  0.00  0.00    -0.069 C 
ATOM      3  C   UNL     1      -0.636   3.616 -25.075  0.00  0.00    -0.027 C 
ATOM      4  C   UNL     1       0.635   2.950 -24.379  0.00  0.00    +0.030 C 
ATOM      5  C   UNL     1       0.589   2.287 -23.081  0.00  0.00    +0.053 C 
ATOM      6  C   UNL     1      -0.436   2.388 -22.805  0.00  0.00    +0.196 C 
ATOM      7  O   UNL     1      -0.431   2.988 -23.960  0.00  0.00    -0.349 OA
ATOM      8  C   UNL     1      -0.703   1.851 -21.647  0.00  0.00    +0.343 C 
ATOM      9  O   UNL     1       0.147   1.244 -20.870  0.00  0.00    -0.247 OA
ATOM     10  O   UNL     1      -1.972   2.031 -21.409  0.00  0.00    -0.452 OA
ATOM     11  C   UNL     1      -2.489   2.679 -22.418  0.00  0.00    +0.242 C 
ATOM     12  C   UNL     1      -3.518   3.043 -22.644  0.00  0.00    +0.039 A 
ATOM     13  C   UNL     1      -4.513   2.855 -21.826  0.00  0.00    -0.006 A 
ATOM     14  C   UNL     1      -5.581   3.385 -22.354  0.00  0.00    +0.199 A 
ATOM     15  O   UNL     1      -5.244   3.903 -23.506  0.00  0.00    -0.467 OA
ATOM     16  C   UNL     1      -4.432   2.239 -20.676  0.00  0.00    +0.047 C 
ATOM     17  C   UNL     1      -3.972   3.695 -23.690  0.00  0.00    +0.116 A 
ATOM     18  C   UNL     1      -1.537   2.897 -23.277  0.00  0.00    +0.208 C 
ATOM     19  C   UNL     1      -3.031   4.067 -24.840  0.00  0.00    +0.105 C 
ENDROOT
TORSDOF 0
ENDMDL
MODEL 2
REMARK VINA RESULT:   -10.112      1.162      4.835
REMARK INTER + INTRA:         -10.112
REMARK INTER:                 -10.112
REMARK INTRA:                   0.000
REMARK UNBOUND:                 0.000
REMARK  Name = ZINC000019816057
REMARK  2 active torsions:
REMARK  status: ('A' for Active; 'I' for Inactive)
REMARK    1  A    between atoms: C_1  and  C_2
REMARK    2  A    between atoms: C_14  and  C_15
REMARK                            x       y       z     vdW  Elec       q    Type
REMARK                         _______ _______ _______ _____ _____    ______ ____
ROOT
ATOM      1  C   UNL     1      -2.530   2.944 -22.541  0.00  0.00    +0.039 C 
ATOM      2  C   UNL     1      -2.925   2.631 -21.752  0.00  0.00    -0.069 C 
ATOM      3  C   UNL     1      -4.363   2.702 -21.430  0.00  0.00    -0.027 C 
ATOM      4  C   UNL     1      -5.489   3.326 -22.371  0.00  0.00    +0.030 C 
ATOM      5  C   UNL     1      -5.215   3.906 -23.681  0.00  0.00    +0.053 C 
ATOM      6  C   UNL     1      -4.159   3.784 -23.773  0.00  0.00    +0.196 C 
ATOM      7  O   UNL     1      -4.367   3.259 -22.600  0.00  0.00    -0.349 OA
ATOM      8  C   UNL     1      -3.692   4.247 -24.899  0.00  0.00    +0.343 C 
ATOM      9  O   UNL     1      -4.390   4.806 -25.846  0.00  0.00    -0.247 OA
ATOM     10  O   UNL     1      -2.403   4.048 -24.906  0.00  0.00    -0.452 OA
ATOM     11  C   UNL     1      -2.074   3.464 -23.786  0.00  0.00    +0.242 C 
ATOM     12  C   UNL     1      -1.103   3.113 -23.366  0.00  0.00    +0.039 A 
ATOM     13  C   UNL     1       0.018   3.245 -24.014  0.00  0.00    -0.006 A 
ATOM     14  C   UNL     1       0.974   2.746 -23.279  0.00  0.00    +0.199 A 
ATOM     15  O   UNL     1       0.440   2.304 -22.172  0.00  0.00    -0.467 OA
ATOM     16  C   UNL     1       0.142   3.788 -25.196  0.00  0.00    +0.047 C 
ATOM     17  C   UNL     1      -0.842   2.527 -22.220  0.00  0.00    +0.116 A 
ATOM     18  C   UNL     1      -3.160   3.303 -23.090  0.00  0.00    +0.208 C 
ATOM     19  C   UNL     1      -1.969   2.231 -21.226  0.00  0.00    +0.105 C 
ENDROOT
TORSDOF 0
ENDMDL
MODEL 3
REMARK VINA RESULT:   -10.066      1.051      3.915
REMARK INTER + INTRA:         -10.066
REMARK INTER:                 -10.066
REMARK INTRA:                   0.000
REMARK UNBOUND:                 0.000
REMARK  Name = ZINC000019816057
REMARK  2 active torsions:
REMARK  status: ('A' for Active; 'I' for Inactive)
REMARK    1  A    between atoms: C_1  and  C_2
REMARK    2  A    between atoms: C_14  and  C_15
REMARK                            x       y       z     vdW  Elec       q    Type
REMARK                         _______ _______ _______ _____ _____    ______ ____
ROOT
ATOM      1  C   UNL     1      -2.238   3.267 -23.868  0.00  0.00    +0.039 C 
ATOM      2  C   UNL     1      -2.483   3.689 -24.666  0.00  0.00    -0.069 C 
ATOM      3  C   UNL     1      -3.837   4.170 -25.000  0.00  0.00    -0.027 C 
ATOM      4  C   UNL     1      -5.116   4.050 -24.054  0.00  0.00    +0.030 C 
ATOM      5  C   UNL     1      -5.086   3.440 -22.730  0.00  0.00    +0.053 C 
ATOM      6  C   UNL     1      -4.065   3.148 -22.632  0.00  0.00    +0.196 C 
ATOM      7  O   UNL     1      -4.055   3.685 -23.818  0.00  0.00    -0.349 OA
ATOM      8  C   UNL     1      -3.812   2.568 -21.492  0.00  0.00    +0.343 C 
ATOM      9  O   UNL     1      -4.671   2.343 -20.539  0.00  0.00    -0.247 OA
ATOM     10  O   UNL     1      -2.546   2.254 -21.478  0.00  0.00    -0.452 OA
ATOM     11  C   UNL     1      -2.018   2.640 -22.608  0.00  0.00    +0.242 C 
ATOM     12  C   UNL     1      -0.986   2.580 -23.027  0.00  0.00    +0.039 A 
ATOM     13  C   UNL     1      -0.003   2.041 -22.367  0.00  0.00    -0.006 A 
ATOM     14  C   UNL     1       1.071   2.115 -23.104  0.00  0.00    +0.199 A 
ATOM     15  O   UNL     1       0.749   2.704 -24.225  0.00  0.00    -0.467 OA
ATOM     16  C   UNL     1      -0.098   1.520 -21.172  0.00  0.00    +0.047 C 
ATOM     17  C   UNL     1      -0.520   2.993 -24.183  0.00  0.00    +0.116 A 
ATOM     18  C   UNL     1      -2.958   3.191 -23.317  0.00  0.00    +0.208 C 
ATOM     19  C   UNL     1      -1.447   3.678 -25.193  0.00  0.00    +0.105 C 
ENDROOT
TORSDOF 0
ENDMDL
MODEL 4
REMARK VINA RESULT:    -9.801      1.120      2.877
REMARK INTER + INTRA:          -9.801
REMARK INTER:                  -9.801
REMARK INTRA:                   0.000
REMARK UNBOUND:                 0.000
REMARK  Name = ZINC000019816057
REMARK  2 active torsions:
REMARK  status: ('A' for Active; 'I' for Inactive)
REMARK    1  A    between atoms: C_1  and  C_2
REMARK    2  A    between atoms: C_14  and  C_15
REMARK                            x       y       z     vdW  Elec       q    Type
REMARK                         _______ _______ _______ _____ _____    ______ ____
ROOT
ATOM      1  C   UNL     1      -1.948   2.698 -22.595  0.00  0.00    +0.039 C 
ATOM      2  C   UNL     1      -1.774   2.268 -21.782  0.00  0.00    -0.069 C 
ATOM      3  C   UNL     1      -0.453   1.790 -21.333  0.00  0.00    -0.027 C 
ATOM      4  C   UNL     1       0.906   1.925 -22.157  0.00  0.00    +0.030 C 
ATOM      5  C   UNL     1       0.992   2.550 -23.473  0.00  0.00    +0.053 C 
ATOM      6  C   UNL     1      -0.018   2.838 -23.659  0.00  0.00    +0.196 C 
ATOM      7  O   UNL     1      -0.132   2.288 -22.485  0.00  0.00    -0.349 OA
ATOM      8  C   UNL     1      -0.170   3.430 -24.811  0.00  0.00    +0.343 C 
ATOM      9  O   UNL     1       0.770   3.669 -25.680  0.00  0.00    -0.247 OA
ATOM     10  O   UNL     1      -1.431   3.738 -24.937  0.00  0.00    -0.452 OA
ATOM     11  C   UNL     1      -2.057   3.337 -23.863  0.00  0.00    +0.242 C 
ATOM     12  C   UNL     1      -3.123   3.388 -23.538  0.00  0.00    +0.039 A 
ATOM     13  C   UNL     1      -4.045   3.930 -24.279  0.00  0.00    -0.006 A 
ATOM     14  C   UNL     1      -5.181   3.842 -23.643  0.00  0.00    +0.199 A 
ATOM     15  O   UNL     1      -4.958   3.243 -22.504  0.00  0.00    -0.467 OA
ATOM     16  C   UNL     1      -3.846   4.464 -25.455  0.00  0.00    +0.047 C 
ATOM     17  C   UNL     1      -3.689   2.960 -22.433  0.00  0.00    +0.116 A 
ATOM     18  C   UNL     1      -1.182   2.783 -23.078  0.00  0.00    +0.208 C 
ATOM     19  C   UNL     1      -2.854   2.269 -21.351  0.00  0.00    +0.105 C 
ENDROOT
TORSDOF 0
ENDMDL
MODEL 5
REMARK VINA RESULT:    -9.067      2.061      5.313
REMARK INTER + INTRA:          -9.067
REMARK INTER:                  -9.067
REMARK INTRA:                   0.000
REMARK UNBOUND:                 0.000
REMARK  Name = ZINC000019816057
REMARK  2 active torsions:
REMARK  status: ('A' for Active; 'I' for Inactive)
REMARK    1  A    between atoms: C_1  and  C_2
REMARK    2  A    between atoms: C_14  and  C_15
REMARK                            x       y       z     vdW  Elec       q    Type
REMARK                         _______ _______ _______ _____ _____    ______ ____
ROOT
ATOM      1  C   UNL     1       0.255   2.232 -22.641  0.00  0.00    +0.039 C 
ATOM      2  C   UNL     1      -0.589   1.993 -22.315  0.00  0.00    -0.069 C 
ATOM      3  C   UNL     1      -1.876   2.295 -22.969  0.00  0.00    -0.027 C 
ATOM      4  C   UNL     1      -2.048   3.081 -24.347  0.00  0.00    +0.030 C 
ATOM      5  C   UNL     1      -0.929   3.598 -25.126  0.00  0.00    +0.053 C 
ATOM      6  C   UNL     1      -0.085   3.309 -24.540  0.00  0.00    +0.196 C 
ATOM      7  O   UNL     1      -1.061   2.835 -23.819  0.00  0.00    -0.349 OA
ATOM      8  C   UNL     1       1.048   3.681 -25.067  0.00  0.00    +0.343 C 
ATOM      9  O   UNL     1       1.195   4.335 -26.183  0.00  0.00    -0.247 OA
ATOM     10  O   UNL     1       2.004   3.281 -24.276  0.00  0.00    -0.452 OA
ATOM     11  C   UNL     1       1.463   2.662 -23.262  0.00  0.00    +0.242 C 
ATOM     12  C   UNL     1       1.886   2.165 -22.358  0.00  0.00    +0.039 A 
ATOM     13  C   UNL     1       3.167   2.112 -22.134  0.00  0.00    -0.006 A 
ATOM     14  C   UNL     1       3.358   1.475 -21.012  0.00  0.00    +0.199 A 
ATOM     15  O   UNL     1       2.188   1.132 -20.540  0.00  0.00    -0.467 OA
ATOM     16  C   UNL     1       4.086   2.617 -22.914  0.00  0.00    +0.047 C 
ATOM     17  C   UNL     1       1.276   1.556 -21.366  0.00  0.00    +0.116 A 
ATOM     18  C   UNL     1       0.173   2.682 -23.428  0.00  0.00    +0.208 C 
ATOM     19  C   UNL     1      -0.252   1.452 -21.343  0.00  0.00    +0.105 C 
ENDROOT
TORSDOF 0
ENDMDL
MODEL 6
REMARK VINA RESULT:    -8.849      2.756      4.435
REMARK INTER + INTRA:          -8.849
REMARK INTER:                  -8.849
REMARK INTRA:                   0.000
REMARK UNBOUND:                 0.000
REMARK  Name = ZINC000019816057
REMARK  2 active torsions:
REMARK  status: ('A' for Active; 'I' for Inactive)
REMARK    1  A    between atoms: C_1  and  C_2
REMARK    2  A    between atoms: C_14  and  C_15
REMARK                            x       y       z     vdW  Elec       q    Type
REMARK                         _______ _______ _______ _____ _____    ______ ____
ROOT
ATOM      1  C   UNL     1       2.252   3.308 -22.879  0.00  0.00    +0.039 C 
ATOM      2  C   UNL     1       2.758   3.990 -23.274  0.00  0.00    -0.069 C 
ATOM      3  C   UNL     1       4.229   4.088 -23.249  0.00  0.00    -0.027 C 
ATOM      4  C   UNL     1       5.211   3.047 -22.543  0.00  0.00    +0.030 C 
ATOM      5  C   UNL     1       4.750   1.860 -21.831  0.00  0.00    +0.053 C 
ATOM      6  C   UNL     1       3.691   1.924 -21.933  0.00  0.00    +0.196 C 
ATOM      7  O   UNL     1       4.066   2.992 -22.576  0.00  0.00    -0.349 OA
ATOM      8  C   UNL     1       3.066   0.937 -21.354  0.00  0.00    +0.343 C 
ATOM      9  O   UNL     1       3.621  -0.047 -20.708  0.00  0.00    -0.247 OA
ATOM     10  O   UNL     1       1.787   1.113 -21.539  0.00  0.00    -0.452 OA
ATOM     11  C   UNL     1       1.622   2.208 -22.230  0.00  0.00    +0.242 C 
ATOM     12  C   UNL     1       0.719   2.739 -22.614  0.00  0.00    +0.039 A 
ATOM     13  C   UNL     1      -0.485   2.292 -22.406  0.00  0.00    -0.006 A 
ATOM     14  C   UNL     1      -1.328   3.115 -22.968  0.00  0.00    +0.199 A 
ATOM     15  O   UNL     1      -0.639   4.075 -23.526  0.00  0.00    -0.467 OA
ATOM     16  C   UNL     1      -0.778   1.203 -21.745  0.00  0.00    +0.047 C 
ATOM     17  C   UNL     1       0.625   3.848 -23.311  0.00  0.00    +0.116 A 
ATOM     18  C   UNL     1       2.799   2.706 -22.472  0.00  0.00    +0.208 C 
ATOM     19  C   UNL     1       1.885   4.618 -23.717  0.00  0.00    +0.105 C 
ENDROOT
TORSDOF 0
ENDMDL
MODEL 7
REMARK VINA RESULT:    -8.734      1.513      4.135
REMARK INTER + INTRA:          -8.734
REMARK INTER:                  -8.734
REMARK INTRA:                   0.000
REMARK UNBOUND:                 0.000
REMARK  Name = ZINC000019816057
REMARK  2 active torsions:
REMARK  status: ('A' for Active; 'I' for Inactive)
REMARK    1  A    between atoms: C_1  and  C_2
REMARK    2  A    between atoms: C_14  and  C_15
REMARK                            x       y       z     vdW  Elec       q    Type
REMARK                         _______ _______ _______ _____ _____    ______ ____
ROOT
ATOM      1  C   UNL     1      -2.581   3.404 -23.185  0.00  0.00    +0.039 C 
ATOM      2  C   UNL     1      -1.790   3.411 -22.684  0.00  0.00    -0.069 C 
ATOM      3  C   UNL     1      -1.709   3.378 -21.212  0.00  0.00    -0.027 C 
ATOM      4  C   UNL     1      -2.958   3.325 -20.221  0.00  0.00    +0.030 C 
ATOM      5  C   UNL     1      -4.345   3.303 -20.673  0.00  0.00    +0.053 C 
ATOM      6  C   UNL     1      -4.245   3.331 -21.734  0.00  0.00    +0.196 C 
ATOM      7  O   UNL     1      -2.996   3.351 -21.367  0.00  0.00    -0.349 OA
ATOM      8  C   UNL     1      -5.393   3.319 -22.351  0.00  0.00    +0.343 C 
ATOM      9  O   UNL     1      -6.566   3.278 -21.787  0.00  0.00    -0.247 OA
ATOM     10  O   UNL     1      -5.156   3.355 -23.633  0.00  0.00    -0.452 OA
ATOM     11  C   UNL     1      -3.862   3.389 -23.807  0.00  0.00    +0.242 C 
ATOM     12  C   UNL     1      -3.216   3.426 -24.715  0.00  0.00    +0.039 A 
ATOM     13  C   UNL     1      -3.714   3.443 -25.918  0.00  0.00    -0.006 A 
ATOM     14  C   UNL     1      -2.725   3.486 -26.767  0.00  0.00    +0.199 A 
ATOM     15  O   UNL     1      -1.610   3.496 -26.086  0.00  0.00    -0.467 OA
ATOM     16  C   UNL     1      -4.989   3.419 -26.202  0.00  0.00    +0.047 C 
ATOM     17  C   UNL     1      -1.907   3.459 -24.818  0.00  0.00    +0.116 A 
ATOM     18  C   UNL     1      -3.304   3.374 -22.633  0.00  0.00    +0.208 C 
ATOM     19  C   UNL     1      -1.029   3.449 -23.563  0.00  0.00    +0.105 C 
ENDROOT
TORSDOF 0
ENDMDL
MODEL 8
REMARK VINA RESULT:    -8.716      1.706      3.925
REMARK INTER + INTRA:          -8.716
REMARK INTER:                  -8.716
REMARK INTRA:                   0.000
REMARK UNBOUND:                 0.000
REMARK  Name = ZINC000019816057
REMARK  2 active torsions:
REMARK  status: ('A' for Active; 'I' for Inactive)
REMARK    1  A    between atoms: C_1  and  C_2
REMARK    2  A    between atoms: C_14  and  C_15
REMARK                            x       y       z     vdW  Elec       q    Type
REMARK                         _______ _______ _______ _____ _____    ______ ____
ROOT
ATOM      1  C   UNL     1       0.609   1.929 -22.283  0.00  0.00    +0.039 C 
ATOM      2  C   UNL     1       1.094   1.503 -21.605  0.00  0.00    -0.069 C 
ATOM      3  C   UNL     1       2.477   1.006 -21.725  0.00  0.00    -0.027 C 
ATOM      4  C   UNL     1       3.384   1.112 -23.034  0.00  0.00    +0.030 C 
ATOM      5  C   UNL     1       2.934   1.724 -24.279  0.00  0.00    +0.053 C 
ATOM      6  C   UNL     1       1.940   2.028 -24.043  0.00  0.00    +0.196 C 
ATOM      7  O   UNL     1       2.308   1.490 -22.916  0.00  0.00    -0.349 OA
ATOM      8  C   UNL     1       1.339   2.612 -25.041  0.00  0.00    +0.343 C 
ATOM      9  O   UNL     1       1.846   2.828 -26.221  0.00  0.00    -0.247 OA
ATOM     10  O   UNL     1       0.140   2.941 -24.647  0.00  0.00    -0.452 OA
ATOM     11  C   UNL     1       0.001   2.560 -23.406  0.00  0.00    +0.242 C 
ATOM     12  C   UNL     1      -0.839   2.631 -22.676  0.00  0.00    +0.039 A 
ATOM     13  C   UNL     1      -1.977   3.182 -22.984  0.00  0.00    -0.006 A 
ATOM     14  C   UNL     1      -2.757   3.119 -21.940  0.00  0.00    +0.199 A 
ATOM     15  O   UNL     1      -2.096   2.526 -20.981  0.00  0.00    -0.467 OA
ATOM     16  C   UNL     1      -2.268   3.703 -24.147  0.00  0.00    +0.047 C 
ATOM     17  C   UNL     1      -0.912   2.222 -21.430  0.00  0.00    +0.116 A 
ATOM     18  C   UNL     1       1.113   1.997 -23.037  0.00  0.00    +0.208 C 
ATOM     19  C   UNL     1       0.284   1.526 -20.772  0.00  0.00    +0.105 C 
ENDROOT
TORSDOF 0
ENDMDL
MODEL 9
REMARK VINA RESULT:    -8.409      1.735      4.629
REMARK INTER + INTRA:          -8.409
REMARK INTER:                  -8.409
REMARK INTRA:                   0.000
REMARK UNBOUND:                 0.000
REMARK  Name = ZINC000019816057
REMARK  2 active torsions:
REMARK  status: ('A' for Active; 'I' for Inactive)
REMARK    1  A    between atoms: C_1  and  C_2
REMARK    2  A    between atoms: C_14  and  C_15
REMARK                            x       y       z     vdW  Elec       q    Type
REMARK                         _______ _______ _______ _____ _____    ______ ____
ROOT
ATOM      1  C   UNL     1       0.438   3.002 -24.150  0.00  0.00    +0.039 C 
ATOM      2  C   UNL     1       0.257   3.373 -24.990  0.00  0.00    -0.069 C 
ATOM      3  C   UNL     1      -1.087   3.639 -25.536  0.00  0.00    -0.027 C 
ATOM      4  C   UNL     1      -2.462   3.339 -24.786  0.00  0.00    +0.030 C 
ATOM      5  C   UNL     1      -2.543   2.756 -23.451  0.00  0.00    +0.053 C 
ATOM      6  C   UNL     1      -1.516   2.623 -23.194  0.00  0.00    +0.196 C 
ATOM      7  O   UNL     1      -1.407   3.141 -24.383  0.00  0.00    -0.349 OA
ATOM      8  C   UNL     1      -1.355   2.101 -22.010  0.00  0.00    +0.343 C 
ATOM      9  O   UNL     1      -2.305   1.760 -21.187  0.00  0.00    -0.247 OA
ATOM     10  O   UNL     1      -0.074   1.982 -21.798  0.00  0.00    -0.452 OA
ATOM     11  C   UNL     1       0.556   2.431 -22.850  0.00  0.00    +0.242 C 
ATOM     12  C   UNL     1       1.636   2.523 -23.110  0.00  0.00    +0.039 A 
ATOM     13  C   UNL     1       2.578   2.146 -22.294  0.00  0.00    -0.006 A 
ATOM     14  C   UNL     1       3.728   2.374 -22.867  0.00  0.00    +0.199 A 
ATOM     15  O   UNL     1       3.495   2.894 -24.043  0.00  0.00    -0.467 OA
ATOM     16  C   UNL     1       2.382   1.631 -21.109  0.00  0.00    +0.047 C 
ATOM     17  C   UNL     1       2.206   2.988 -24.199  0.00  0.00    +0.116 A 
ATOM     18  C   UNL     1      -0.338   2.824 -23.709  0.00  0.00    +0.208 C 
ATOM     19  C   UNL     1       1.351   3.512 -25.357  0.00  0.00    +0.105 C 
ENDROOT
TORSDOF 0
ENDMDL
