MODEL 1
REMARK VINA RESULT:    -7.929      0.000      0.000
REMARK INTER + INTRA:          -9.812
REMARK INTER:                  -9.412
REMARK INTRA:                  -0.400
REMARK UNBOUND:                -0.492
REMARK  Name = ZINC000001870371
REMARK  3 active torsions:
REMARK  status: ('A' for Active; 'I' for Inactive)
REMARK    1  A    between atoms: C_2  and  C_4
REMARK    2  A    between atoms: C_5  and  C_6
REMARK    3  A    between atoms: C_7  and  C_8
REMARK                            x       y       z     vdW  Elec       q    Type
REMARK                         _______ _______ _______ _____ _____    ______ ____
ROOT
ATOM      1  C   UNL     1      -2.421   2.628 -21.707  0.00  0.00    -0.021 A 
ATOM      2  C   UNL     1      -3.524   2.611 -21.020  0.00  0.00    +0.012 A 
ATOM      3  C   UNL     1      -4.638   2.995 -21.570  0.00  0.00    +0.050 A 
ATOM      4  C   UNL     1      -4.648   3.396 -22.807  0.00  0.00    +0.166 A 
ATOM      5  C   UNL     1      -3.544   3.413 -23.494  0.00  0.00    +0.167 A 
ATOM      6  O   UNL     1      -3.821   3.849 -24.687  0.00  0.00    -0.453 OA
ATOM      7  C   UNL     1      -5.095   4.101 -24.738  0.00  0.00    +0.466 C 
ATOM      8  O   UNL     1      -5.606   3.822 -23.576  0.00  0.00    -0.453 OA
ATOM      9  C   UNL     1      -2.431   3.028 -22.943  0.00  0.00    +0.057 A 
ENDROOT
BRANCH   1  11
ATOM     10  C   UNL     1      -0.311   1.868 -21.902  0.00  0.00    +0.001 C 
ATOM     11  C   UNL     1      -1.307   2.244 -21.157  0.00  0.00    +0.008 C 
BRANCH  10  13
ATOM     12  C   UNL     1       1.936   1.728 -21.941  0.00  0.00    +0.024 C 
ATOM     13  C   UNL     1       0.803   1.484 -21.353  0.00  0.00    +0.002 C 
BRANCH  12  15
ATOM     14  O   UNL     1       3.285   0.078 -21.213  0.00  0.00    -0.545 OA
ATOM     15  C   UNL     1       3.050   1.344 -21.391  0.00  0.00    +0.065 C 
ATOM     16  O   UNL     1       3.930   2.227 -21.019  0.00  0.00    -0.545 OA
ENDBRANCH  12  15
ENDBRANCH  10  13
ENDBRANCH   1  11
TORSDOF 3
ENDMDL
MODEL 2
REMARK VINA RESULT:    -7.521      1.000      2.000
REMARK INTER + INTRA:          -9.332
REMARK INTER:                  -8.840
REMARK INTRA:                  -0.492
REMARK UNBOUND:                -0.492
REMARK  Name = ZINC000001870371
REMARK  3 active torsions:
REMARK  status: ('A' for Active; 'I' for Inactive)
REMARK    1  A    between atoms: C_2  and  C_4
REMARK    2  A    between atoms: C_5  and  C_6
REMARK    3  A    between atoms: C_7  and  C_8
REMARK                            x       y       z     vdW  Elec       q    Type
REMARK                         _______ _______ _______ _____ _____    ______ ____
ROOT
ATOM      1  C   UNL     1      -1.587   2.905 -22.555  0.00  0.00    -0.021 A 
ATOM      2  C   UNL     1      -1.779   3.431 -23.728  0.00  0.00    +0.012 A 
ATOM      3  C   UNL     1      -2.981   3.746 -24.110  0.00  0.00    +0.050 A 
ATOM      4  C   UNL     1      -3.992   3.534 -23.319  0.00  0.00    +0.166 A 
ATOM      5  C   UNL     1      -3.799   3.008 -22.146  0.00  0.00    +0.167 A 
ATOM      6  O   UNL     1      -4.954   2.902 -21.559  0.00  0.00    -0.453 OA
ATOM      7  C   UNL     1      -5.861   3.362 -22.370  0.00  0.00    +0.466 C 
ATOM      8  O   UNL     1      -5.266   3.753 -23.457  0.00  0.00    -0.453 OA
ATOM      9  C   UNL     1      -2.597   2.694 -21.765  0.00  0.00    +0.057 A 
ENDROOT
BRANCH   1  11
ATOM     10  C   UNL     1       0.609   2.699 -23.002  0.00  0.00    +0.001 C 
ATOM     11  C   UNL     1      -0.385   2.590 -22.172  0.00  0.00    +0.008 C 
BRANCH  10  13
ATOM     12  C   UNL     1       1.985   1.598 -21.599  0.00  0.00    +0.024 C 
ATOM     13  C   UNL     1       1.812   2.384 -22.620  0.00  0.00    +0.002 C 
BRANCH  12  15
ATOM     14  O   UNL     1       4.080   2.214 -21.048  0.00  0.00    -0.545 OA
ATOM     15  C   UNL     1       3.187   1.284 -21.218  0.00  0.00    +0.065 C 
ATOM     16  O   UNL     1       3.498   0.039 -21.006  0.00  0.00    -0.545 OA
ENDBRANCH  12  15
ENDBRANCH  10  13
ENDBRANCH   1  11
TORSDOF 3
ENDMDL
MODEL 3
REMARK VINA RESULT:    -7.410      1.148      6.969
REMARK INTER + INTRA:          -9.202
REMARK INTER:                  -8.721
REMARK INTRA:                  -0.481
REMARK UNBOUND:                -0.492
REMARK  Name = ZINC000001870371
REMARK  3 active torsions:
REMARK  status: ('A' for Active; 'I' for Inactive)
REMARK    1  A    between atoms: C_2  and  C_4
REMARK    2  A    between atoms: C_5  and  C_6
REMARK    3  A    between atoms: C_7  and  C_8
REMARK                            x       y       z     vdW  Elec       q    Type
REMARK                         _______ _______ _______ _____ _____    ______ ____
ROOT
ATOM      1  C   UNL     1       0.143   2.321 -22.339  0.00  0.00    -0.021 A 
ATOM      2  C   UNL     1       0.842   3.132 -23.076  0.00  0.00    +0.012 A 
ATOM      3  C   UNL     1       2.140   3.106 -23.021  0.00  0.00    +0.050 A 
ATOM      4  C   UNL     1       2.740   2.268 -22.228  0.00  0.00    +0.166 A 
ATOM      5  C   UNL     1       2.042   1.457 -21.491  0.00  0.00    +0.167 A 
ATOM      6  O   UNL     1       2.869   0.732 -20.798  0.00  0.00    -0.453 OA
ATOM      7  C   UNL     1       4.078   1.095 -21.106  0.00  0.00    +0.466 C 
ATOM      8  O   UNL     1       3.999   2.044 -21.991  0.00  0.00    -0.453 OA
ATOM      9  C   UNL     1       0.743   1.484 -21.547  0.00  0.00    +0.057 A 
ENDROOT
BRANCH   1  11
ATOM     10  C   UNL     1      -1.844   2.655 -21.335  0.00  0.00    +0.001 C 
ATOM     11  C   UNL     1      -1.155   2.347 -22.394  0.00  0.00    +0.008 C 
BRANCH  10  13
ATOM     12  C   UNL     1      -3.740   3.219 -22.411  0.00  0.00    +0.024 C 
ATOM     13  C   UNL     1      -3.143   2.681 -21.390  0.00  0.00    +0.002 C 
BRANCH  12  15
ATOM     14  O   UNL     1      -5.740   2.632 -21.559  0.00  0.00    -0.545 OA
ATOM     15  C   UNL     1      -5.038   3.246 -22.465  0.00  0.00    +0.065 C 
ATOM     16  O   UNL     1      -5.636   3.886 -23.426  0.00  0.00    -0.545 OA
ENDBRANCH  12  15
ENDBRANCH  10  13
ENDBRANCH   1  11
TORSDOF 3
ENDMDL
MODEL 4
REMARK VINA RESULT:    -7.270      2.078      2.851
REMARK INTER + INTRA:          -9.037
REMARK INTER:                  -8.556
REMARK INTRA:                  -0.482
REMARK UNBOUND:                -0.492
REMARK  Name = ZINC000001870371
REMARK  3 active torsions:
REMARK  status: ('A' for Active; 'I' for Inactive)
REMARK    1  A    between atoms: C_2  and  C_4
REMARK    2  A    between atoms: C_5  and  C_6
REMARK    3  A    between atoms: C_7  and  C_8
REMARK                            x       y       z     vdW  Elec       q    Type
REMARK                         _______ _______ _______ _____ _____    ______ ____
ROOT
ATOM      1  C   UNL     1      -1.561   3.813 -23.073  0.00  0.00    -0.021 A 
ATOM      2  C   UNL     1      -2.093   4.135 -24.215  0.00  0.00    +0.012 A 
ATOM      3  C   UNL     1      -3.382   4.081 -24.370  0.00  0.00    +0.050 A 
ATOM      4  C   UNL     1      -4.140   3.705 -23.383  0.00  0.00    +0.166 A 
ATOM      5  C   UNL     1      -3.609   3.383 -22.241  0.00  0.00    +0.167 A 
ATOM      6  O   UNL     1      -4.569   3.047 -21.432  0.00  0.00    -0.453 OA
ATOM      7  C   UNL     1      -5.694   3.162 -22.073  0.00  0.00    +0.466 C 
ATOM      8  O   UNL     1      -5.429   3.568 -23.279  0.00  0.00    -0.453 OA
ATOM      9  C   UNL     1      -2.319   3.437 -22.087  0.00  0.00    +0.057 A 
ENDROOT
BRANCH   1  11
ATOM     10  C   UNL     1       0.489   2.982 -23.492  0.00  0.00    +0.001 C 
ATOM     11  C   UNL     1      -0.272   3.867 -22.918  0.00  0.00    +0.008 C 
BRANCH  10  13
ATOM     12  C   UNL     1       2.396   4.177 -23.414  0.00  0.00    +0.024 C 
ATOM     13  C   UNL     1       1.779   3.036 -23.337  0.00  0.00    +0.002 C 
BRANCH  12  15
ATOM     14  O   UNL     1       4.228   5.246 -22.656  0.00  0.00    -0.545 OA
ATOM     15  C   UNL     1       3.686   4.230 -23.259  0.00  0.00    +0.065 C 
ATOM     16  O   UNL     1       4.435   3.267 -23.708  0.00  0.00    -0.545 OA
ENDBRANCH  12  15
ENDBRANCH  10  13
ENDBRANCH   1  11
TORSDOF 3
ENDMDL
MODEL 5
REMARK VINA RESULT:    -7.031      2.528      7.349
REMARK INTER + INTRA:          -8.757
REMARK INTER:                  -8.302
REMARK INTRA:                  -0.455
REMARK UNBOUND:                -0.492
REMARK  Name = ZINC000001870371
REMARK  3 active torsions:
REMARK  status: ('A' for Active; 'I' for Inactive)
REMARK    1  A    between atoms: C_2  and  C_4
REMARK    2  A    between atoms: C_5  and  C_6
REMARK    3  A    between atoms: C_7  and  C_8
REMARK                            x       y       z     vdW  Elec       q    Type
REMARK                         _______ _______ _______ _____ _____    ______ ____
ROOT
ATOM      1  C   UNL     1       0.681   4.074 -23.717  0.00  0.00    -0.021 A 
ATOM      2  C   UNL     1       1.026   2.838 -23.921  0.00  0.00    +0.012 A 
ATOM      3  C   UNL     1       2.270   2.481 -23.797  0.00  0.00    +0.050 A 
ATOM      4  C   UNL     1       3.169   3.362 -23.469  0.00  0.00    +0.166 A 
ATOM      5  C   UNL     1       2.824   4.599 -23.266  0.00  0.00    +0.167 A 
ATOM      6  O   UNL     1       3.894   5.268 -22.955  0.00  0.00    -0.453 OA
ATOM      7  C   UNL     1       4.900   4.445 -22.967  0.00  0.00    +0.466 C 
ATOM      8  O   UNL     1       4.453   3.267 -23.284  0.00  0.00    -0.453 OA
ATOM      9  C   UNL     1       1.580   4.954 -23.390  0.00  0.00    +0.057 A 
ENDROOT
BRANCH   1  11
ATOM     10  C   UNL     1      -1.337   3.807 -24.678  0.00  0.00    +0.001 C 
ATOM     11  C   UNL     1      -0.563   4.431 -23.841  0.00  0.00    +0.008 C 
BRANCH  10  13
ATOM     12  C   UNL     1      -3.472   3.716 -23.968  0.00  0.00    +0.024 C 
ATOM     13  C   UNL     1      -2.582   4.163 -24.802  0.00  0.00    +0.002 C 
BRANCH  12  15
ATOM     14  O   UNL     1      -5.074   4.859 -25.063  0.00  0.00    -0.545 OA
ATOM     15  C   UNL     1      -4.716   4.072 -24.092  0.00  0.00    +0.065 C 
ATOM     16  O   UNL     1      -5.604   3.641 -23.245  0.00  0.00    -0.545 OA
ENDBRANCH  12  15
ENDBRANCH  10  13
ENDBRANCH   1  11
TORSDOF 3
ENDMDL
MODEL 6
REMARK VINA RESULT:    -6.724      1.228      1.806
REMARK INTER + INTRA:          -8.395
REMARK INTER:                  -7.921
REMARK INTRA:                  -0.475
REMARK UNBOUND:                -0.492
REMARK  Name = ZINC000001870371
REMARK  3 active torsions:
REMARK  status: ('A' for Active; 'I' for Inactive)
REMARK    1  A    between atoms: C_2  and  C_4
REMARK    2  A    between atoms: C_5  and  C_6
REMARK    3  A    between atoms: C_7  and  C_8
REMARK                            x       y       z     vdW  Elec       q    Type
REMARK                         _______ _______ _______ _____ _____    ______ ____
ROOT
ATOM      1  C   UNL     1      -0.554   2.395 -22.348  0.00  0.00    -0.021 A 
ATOM      2  C   UNL     1      -1.442   2.196 -21.420  0.00  0.00    +0.012 A 
ATOM      3  C   UNL     1      -2.689   2.487 -21.641  0.00  0.00    +0.050 A 
ATOM      4  C   UNL     1      -3.049   2.977 -22.790  0.00  0.00    +0.166 A 
ATOM      5  C   UNL     1      -2.161   3.176 -23.719  0.00  0.00    +0.167 A 
ATOM      6  O   UNL     1      -2.770   3.666 -24.757  0.00  0.00    -0.453 OA
ATOM      7  C   UNL     1      -4.034   3.770 -24.471  0.00  0.00    +0.466 C 
ATOM      8  O   UNL     1      -4.207   3.344 -23.256  0.00  0.00    -0.453 OA
ATOM      9  C   UNL     1      -0.914   2.885 -23.497  0.00  0.00    +0.057 A 
ENDROOT
BRANCH   1  11
ATOM     10  C   UNL     1       1.587   2.337 -23.043  0.00  0.00    +0.001 C 
ATOM     11  C   UNL     1       0.693   2.104 -22.128  0.00  0.00    +0.008 C 
BRANCH  10  13
ATOM     12  C   UNL     1       3.304   2.070 -21.610  0.00  0.00    +0.024 C 
ATOM     13  C   UNL     1       2.835   2.047 -22.822  0.00  0.00    +0.002 C 
BRANCH  12  15
ATOM     14  O   UNL     1       5.072   0.709 -21.913  0.00  0.00    -0.545 OA
ATOM     15  C   UNL     1       4.551   1.779 -21.391  0.00  0.00    +0.065 C 
ATOM     16  O   UNL     1       5.280   2.559 -20.647  0.00  0.00    -0.545 OA
ENDBRANCH  12  15
ENDBRANCH  10  13
ENDBRANCH   1  11
TORSDOF 3
ENDMDL
MODEL 7
REMARK VINA RESULT:    -6.517      2.186      6.922
REMARK INTER + INTRA:          -8.152
REMARK INTER:                  -7.670
REMARK INTRA:                  -0.482
REMARK UNBOUND:                -0.492
REMARK  Name = ZINC000001870371
REMARK  3 active torsions:
REMARK  status: ('A' for Active; 'I' for Inactive)
REMARK    1  A    between atoms: C_2  and  C_4
REMARK    2  A    between atoms: C_5  and  C_6
REMARK    3  A    between atoms: C_7  and  C_8
REMARK                            x       y       z     vdW  Elec       q    Type
REMARK                         _______ _______ _______ _____ _____    ______ ____
ROOT
ATOM      1  C   UNL     1       0.827   3.032 -23.247  0.00  0.00    -0.021 A 
ATOM      2  C   UNL     1       1.094   2.512 -24.409  0.00  0.00    +0.012 A 
ATOM      3  C   UNL     1       2.328   2.389 -24.797  0.00  0.00    +0.050 A 
ATOM      4  C   UNL     1       3.296   2.786 -24.024  0.00  0.00    +0.166 A 
ATOM      5  C   UNL     1       3.029   3.306 -22.863  0.00  0.00    +0.167 A 
ATOM      6  O   UNL     1       4.155   3.617 -22.294  0.00  0.00    -0.453 OA
ATOM      7  C   UNL     1       5.118   3.289 -23.103  0.00  0.00    +0.466 C 
ATOM      8  O   UNL     1       4.588   2.776 -24.173  0.00  0.00    -0.453 OA
ATOM      9  C   UNL     1       1.794   3.428 -22.476  0.00  0.00    +0.057 A 
ENDROOT
BRANCH   1  11
ATOM     10  C   UNL     1      -0.884   2.359 -21.948  0.00  0.00    +0.001 C 
ATOM     11  C   UNL     1      -0.407   3.155 -22.859  0.00  0.00    +0.008 C 
BRANCH  10  13
ATOM     12  C   UNL     1      -3.050   2.747 -22.426  0.00  0.00    +0.024 C 
ATOM     13  C   UNL     1      -2.119   2.481 -21.559  0.00  0.00    +0.002 C 
BRANCH  12  15
ATOM     14  O   UNL     1      -4.693   2.255 -20.966  0.00  0.00    -0.545 OA
ATOM     15  C   UNL     1      -4.284   2.870 -22.036  0.00  0.00    +0.065 C 
ATOM     16  O   UNL     1      -5.111   3.608 -22.717  0.00  0.00    -0.545 OA
ENDBRANCH  12  15
ENDBRANCH  10  13
ENDBRANCH   1  11
TORSDOF 3
ENDMDL
MODEL 8
REMARK VINA RESULT:    -6.496      2.587      3.590
REMARK INTER + INTRA:          -8.127
REMARK INTER:                  -7.646
REMARK INTRA:                  -0.482
REMARK UNBOUND:                -0.492
REMARK  Name = ZINC000001870371
REMARK  3 active torsions:
REMARK  status: ('A' for Active; 'I' for Inactive)
REMARK    1  A    between atoms: C_2  and  C_4
REMARK    2  A    between atoms: C_5  and  C_6
REMARK    3  A    between atoms: C_7  and  C_8
REMARK                            x       y       z     vdW  Elec       q    Type
REMARK                         _______ _______ _______ _____ _____    ______ ____
ROOT
ATOM      1  C   UNL     1       0.992   2.864 -23.118  0.00  0.00    -0.021 A 
ATOM      2  C   UNL     1       0.157   2.227 -22.352  0.00  0.00    +0.012 A 
ATOM      3  C   UNL     1      -1.086   2.100 -22.709  0.00  0.00    +0.050 A 
ATOM      4  C   UNL     1      -1.495   2.610 -23.834  0.00  0.00    +0.166 A 
ATOM      5  C   UNL     1      -0.660   3.247 -24.600  0.00  0.00    +0.167 A 
ATOM      6  O   UNL     1      -1.310   3.653 -25.650  0.00  0.00    -0.453 OA
ATOM      7  C   UNL     1      -2.546   3.267 -25.533  0.00  0.00    +0.466 C 
ATOM      8  O   UNL     1      -2.660   2.622 -24.410  0.00  0.00    -0.453 OA
ATOM      9  C   UNL     1       0.583   3.373 -24.241  0.00  0.00    +0.057 A 
ENDROOT
BRANCH   1  11
ATOM     10  C   UNL     1       3.156   3.164 -23.662  0.00  0.00    +0.001 C 
ATOM     11  C   UNL     1       2.235   2.992 -22.761  0.00  0.00    +0.008 C 
BRANCH  10  13
ATOM     12  C   UNL     1       4.777   2.918 -22.118  0.00  0.00    +0.024 C 
ATOM     13  C   UNL     1       4.399   3.291 -23.305  0.00  0.00    +0.002 C 
BRANCH  12  15
ATOM     14  O   UNL     1       6.969   2.857 -22.630  0.00  0.00    -0.545 OA
ATOM     15  C   UNL     1       6.020   3.045 -21.762  0.00  0.00    +0.065 C 
ATOM     16  O   UNL     1       6.316   3.362 -20.536  0.00  0.00    -0.545 OA
ENDBRANCH  12  15
ENDBRANCH  10  13
ENDBRANCH   1  11
TORSDOF 3
ENDMDL
MODEL 9
REMARK VINA RESULT:    -5.765      3.072      4.830
REMARK INTER + INTRA:          -7.268
REMARK INTER:                  -6.776
REMARK INTRA:                  -0.492
REMARK UNBOUND:                -0.492
REMARK  Name = ZINC000001870371
REMARK  3 active torsions:
REMARK  status: ('A' for Active; 'I' for Inactive)
REMARK    1  A    between atoms: C_2  and  C_4
REMARK    2  A    between atoms: C_5  and  C_6
REMARK    3  A    between atoms: C_7  and  C_8
REMARK                            x       y       z     vdW  Elec       q    Type
REMARK                         _______ _______ _______ _____ _____    ______ ____
ROOT
ATOM      1  C   UNL     1       2.199   2.538 -22.754  0.00  0.00    -0.021 A 
ATOM      2  C   UNL     1       1.911   1.750 -21.761  0.00  0.00    +0.012 A 
ATOM      3  C   UNL     1       0.670   1.480 -21.485  0.00  0.00    +0.050 A 
ATOM      4  C   UNL     1      -0.284   1.999 -22.202  0.00  0.00    +0.166 A 
ATOM      5  C   UNL     1       0.005   2.787 -23.195  0.00  0.00    +0.167 A 
ATOM      6  O   UNL     1      -1.111   3.166 -23.743  0.00  0.00    -0.453 OA
ATOM      7  C   UNL     1      -2.089   2.613 -23.090  0.00  0.00    +0.466 C 
ATOM      8  O   UNL     1      -1.578   1.891 -22.138  0.00  0.00    -0.453 OA
ATOM      9  C   UNL     1       1.247   3.056 -23.470  0.00  0.00    +0.057 A 
ENDROOT
BRANCH   1  11
ATOM     10  C   UNL     1       4.382   2.441 -22.212  0.00  0.00    +0.001 C 
ATOM     11  C   UNL     1       3.440   2.808 -23.029  0.00  0.00    +0.008 C 
BRANCH  10  13
ATOM     12  C   UNL     1       5.917   3.438 -23.525  0.00  0.00    +0.024 C 
ATOM     13  C   UNL     1       5.624   2.711 -22.488  0.00  0.00    +0.002 C 
BRANCH  12  15
ATOM     14  O   UNL     1       7.959   4.116 -22.861  0.00  0.00    -0.545 OA
ATOM     15  C   UNL     1       7.158   3.707 -23.800  0.00  0.00    +0.065 C 
ATOM     16  O   UNL     1       7.600   3.568 -25.015  0.00  0.00    -0.545 OA
ENDBRANCH  12  15
ENDBRANCH  10  13
ENDBRANCH   1  11
TORSDOF 3
ENDMDL
