MODEL 1
REMARK VINA RESULT:   -10.003      0.000      0.000
REMARK INTER + INTRA:          -9.046
REMARK INTER:                 -10.873
REMARK INTRA:                   1.828
REMARK UNBOUND:                 1.834
REMARK  Name = C[C@@H]1CC[C@H](O)[C@]2(CO)CC[C@@H]3[C@@H]([C@@H]12)C3(C)C           ZINC000249694002
REMARK  6 active torsions:
REMARK  status: ('A' for Active; 'I' for Inactive)
REMARK    1  A    between atoms: C_1  and  C_2
REMARK    2  A    between atoms: C_5  and  O_6
REMARK    3  A    between atoms: C_7  and  C_8
REMARK    4  A    between atoms: C_8  and  O_9
REMARK    5  A    between atoms: C_15  and  C_16
REMARK    6  A    between atoms: C_15  and  C_17
REMARK                            x       y       z     vdW  Elec       q    Type
REMARK                         _______ _______ _______ _____ _____    ______ ____
ROOT
ATOM      1  C   UNL     1      -3.708   2.500 -21.007  0.00  0.00    +0.008 C 
ATOM      2  C   UNL     1      -3.987   3.002 -22.174  0.00  0.00    -0.010 C 
ATOM      3  C   UNL     1      -5.203   3.370 -22.448  0.00  0.00    +0.006 C 
ATOM      4  C   UNL     1      -5.483   3.872 -23.615  0.00  0.00    +0.032 C 
ATOM      5  C   UNL     1      -4.546   4.005 -24.506  0.00  0.00    +0.123 C 
ATOM      6  C   UNL     1      -3.330   3.637 -24.232  0.00  0.00    +0.023 C 
ATOM      7  C   UNL     1      -2.393   3.770 -25.123  0.00  0.00    +0.012 C 
ATOM      8  C   UNL     1      -1.177   3.401 -24.849  0.00  0.00    +0.005 C 
ATOM      9  C   UNL     1      -0.898   2.900 -23.682  0.00  0.00    -0.001 C 
ATOM     10  C   UNL     1      -1.834   2.766 -22.791  0.00  0.00    +0.003 C 
ATOM     11  C   UNL     1      -0.618   2.398 -22.516  0.00  0.00    -0.028 C 
ATOM     12  C   UNL     1       0.655   2.177 -22.664  0.00  0.00    +0.011 C 
ATOM     13  C   UNL     1      -0.781   1.973 -21.298  0.00  0.00    +0.011 C 
ATOM     14  C   UNL     1      -3.050   3.135 -23.065  0.00  0.00    +0.007 C 
ENDROOT
BRANCH   5  15
ATOM     15  O   UNL     1      -4.825   4.507 -25.673  0.00  0.00    -0.391 OA
ATOM     16  H   UNL     1      -5.281   3.840 -26.210  0.00  0.00    +0.210 HD
ENDBRANCH   5  15
BRANCH   6  17
ATOM     17  C   UNL     1      -3.609   4.138 -25.398  0.00  0.00    +0.165 C 
BRANCH  17  18
ATOM     18  O   UNL     1      -4.087   5.344 -25.490  0.00  0.00    -0.394 OA
ATOM     19  H   UNL     1      -4.540   5.576 -24.664  0.00  0.00    +0.209 HD
ENDBRANCH  17  18
ENDBRANCH   6  17
TORSDOF 3
ENDMDL
MODEL 2
REMARK VINA RESULT:    -9.327      1.351      2.809
REMARK INTER + INTRA:          -8.310
REMARK INTER:                 -10.573
REMARK INTRA:                   2.263
REMARK UNBOUND:                 1.834
REMARK  Name = C[C@@H]1CC[C@H](O)[C@]2(CO)CC[C@@H]3[C@@H]([C@@H]12)C3(C)C           ZINC000249694002
REMARK  6 active torsions:
REMARK  status: ('A' for Active; 'I' for Inactive)
REMARK    1  A    between atoms: C_1  and  C_2
REMARK    2  A    between atoms: C_5  and  O_6
REMARK    3  A    between atoms: C_7  and  C_8
REMARK    4  A    between atoms: C_8  and  O_9
REMARK    5  A    between atoms: C_15  and  C_16
REMARK    6  A    between atoms: C_15  and  C_17
REMARK                            x       y       z     vdW  Elec       q    Type
REMARK                         _______ _______ _______ _____ _____    ______ ____
ROOT
ATOM      1  C   UNL     1      -1.547   3.552 -25.414  0.00  0.00    +0.008 C 
ATOM      2  C   UNL     1      -2.650   3.612 -24.728  0.00  0.00    -0.010 C 
ATOM      3  C   UNL     1      -3.727   4.100 -25.269  0.00  0.00    +0.006 C 
ATOM      4  C   UNL     1      -4.829   4.160 -24.582  0.00  0.00    +0.032 C 
ATOM      5  C   UNL     1      -4.855   3.732 -23.355  0.00  0.00    +0.123 C 
ATOM      6  C   UNL     1      -3.779   3.244 -22.814  0.00  0.00    +0.023 C 
ATOM      7  C   UNL     1      -3.805   2.816 -21.587  0.00  0.00    +0.012 C 
ATOM      8  C   UNL     1      -2.728   2.327 -21.045  0.00  0.00    +0.005 C 
ATOM      9  C   UNL     1      -1.626   2.267 -21.732  0.00  0.00    -0.001 C 
ATOM     10  C   UNL     1      -1.600   2.696 -22.959  0.00  0.00    +0.003 C 
ATOM     11  C   UNL     1      -0.523   2.207 -22.418  0.00  0.00    -0.028 C 
ATOM     12  C   UNL     1       0.266   1.676 -21.531  0.00  0.00    +0.011 C 
ATOM     13  C   UNL     1       0.306   2.332 -23.412  0.00  0.00    +0.011 C 
ATOM     14  C   UNL     1      -2.676   3.184 -23.500  0.00  0.00    +0.007 C 
ENDROOT
BRANCH   5  15
ATOM     15  O   UNL     1      -5.958   3.792 -22.669  0.00  0.00    -0.391 OA
ATOM     16  H   UNL     1      -5.748   3.941 -21.734  0.00  0.00    +0.210 HD
ENDBRANCH   5  15
BRANCH   6  17
ATOM     17  C   UNL     1      -4.881   3.304 -22.128  0.00  0.00    +0.165 C 
BRANCH  17  18
ATOM     18  O   UNL     1      -6.000   3.602 -22.719  0.00  0.00    -0.394 OA
ATOM     19  H   UNL     1      -6.512   4.206 -22.157  0.00  0.00    +0.209 HD
ENDBRANCH  17  18
ENDBRANCH   6  17
TORSDOF 3
ENDMDL
MODEL 3
REMARK VINA RESULT:    -9.245      1.053      3.089
REMARK INTER + INTRA:          -8.222
REMARK INTER:                 -10.079
REMARK INTRA:                   1.858
REMARK UNBOUND:                 1.834
REMARK  Name = C[C@@H]1CC[C@H](O)[C@]2(CO)CC[C@@H]3[C@@H]([C@@H]12)C3(C)C           ZINC000249694002
REMARK  6 active torsions:
REMARK  status: ('A' for Active; 'I' for Inactive)
REMARK    1  A    between atoms: C_1  and  C_2
REMARK    2  A    between atoms: C_5  and  O_6
REMARK    3  A    between atoms: C_7  and  C_8
REMARK    4  A    between atoms: C_8  and  O_9
REMARK    5  A    between atoms: C_15  and  C_16
REMARK    6  A    between atoms: C_15  and  C_17
REMARK                            x       y       z     vdW  Elec       q    Type
REMARK                         _______ _______ _______ _____ _____    ______ ____
ROOT
ATOM      1  C   UNL     1      -0.608   3.132 -23.491  0.00  0.00    +0.008 C 
ATOM      2  C   UNL     1      -1.649   3.325 -24.246  0.00  0.00    -0.010 C 
ATOM      3  C   UNL     1      -1.507   3.422 -25.535  0.00  0.00    +0.006 C 
ATOM      4  C   UNL     1      -2.548   3.615 -26.290  0.00  0.00    +0.032 C 
ATOM      5  C   UNL     1      -3.730   3.710 -25.757  0.00  0.00    +0.123 C 
ATOM      6  C   UNL     1      -3.871   3.613 -24.468  0.00  0.00    +0.023 C 
ATOM      7  C   UNL     1      -5.053   3.708 -23.935  0.00  0.00    +0.012 C 
ATOM      8  C   UNL     1      -5.194   3.610 -22.647  0.00  0.00    +0.005 C 
ATOM      9  C   UNL     1      -4.154   3.418 -21.891  0.00  0.00    -0.001 C 
ATOM     10  C   UNL     1      -2.972   3.322 -22.424  0.00  0.00    +0.003 C 
ATOM     11  C   UNL     1      -3.113   3.225 -21.136  0.00  0.00    -0.028 C 
ATOM     12  C   UNL     1      -3.685   3.190 -19.968  0.00  0.00    +0.011 C 
ATOM     13  C   UNL     1      -1.875   3.044 -20.786  0.00  0.00    +0.011 C 
ATOM     14  C   UNL     1      -2.831   3.420 -23.713  0.00  0.00    +0.007 C 
ENDROOT
BRANCH   5  15
ATOM     15  O   UNL     1      -4.770   3.903 -26.512  0.00  0.00    -0.391 OA
ATOM     16  H   UNL     1      -5.575   3.837 -25.975  0.00  0.00    +0.210 HD
ENDBRANCH   5  15
BRANCH   6  17
ATOM     17  C   UNL     1      -4.912   3.805 -25.224  0.00  0.00    +0.165 C 
BRANCH  17  18
ATOM     18  O   UNL     1      -5.137   3.017 -26.233  0.00  0.00    -0.394 OA
ATOM     19  H   UNL     1      -5.314   2.119 -25.909  0.00  0.00    +0.209 HD
ENDBRANCH  17  18
ENDBRANCH   6  17
TORSDOF 3
ENDMDL
MODEL 4
REMARK VINA RESULT:    -9.237      1.850      3.351
REMARK INTER + INTRA:          -8.212
REMARK INTER:                 -10.366
REMARK INTRA:                   2.154
REMARK UNBOUND:                 1.834
REMARK  Name = C[C@@H]1CC[C@H](O)[C@]2(CO)CC[C@@H]3[C@@H]([C@@H]12)C3(C)C           ZINC000249694002
REMARK  6 active torsions:
REMARK  status: ('A' for Active; 'I' for Inactive)
REMARK    1  A    between atoms: C_1  and  C_2
REMARK    2  A    between atoms: C_5  and  O_6
REMARK    3  A    between atoms: C_7  and  C_8
REMARK    4  A    between atoms: C_8  and  O_9
REMARK    5  A    between atoms: C_15  and  C_16
REMARK    6  A    between atoms: C_15  and  C_17
REMARK                            x       y       z     vdW  Elec       q    Type
REMARK                         _______ _______ _______ _____ _____    ______ ____
ROOT
ATOM      1  C   UNL     1      -5.180   3.750 -24.197  0.00  0.00    +0.008 C 
ATOM      2  C   UNL     1      -3.964   3.674 -24.652  0.00  0.00    -0.010 C 
ATOM      3  C   UNL     1      -3.749   3.673 -25.934  0.00  0.00    +0.006 C 
ATOM      4  C   UNL     1      -2.533   3.598 -26.389  0.00  0.00    +0.032 C 
ATOM      5  C   UNL     1      -1.533   3.523 -25.561  0.00  0.00    +0.123 C 
ATOM      6  C   UNL     1      -1.748   3.524 -24.279  0.00  0.00    +0.023 C 
ATOM      7  C   UNL     1      -0.748   3.450 -23.452  0.00  0.00    +0.012 C 
ATOM      8  C   UNL     1      -0.964   3.451 -22.170  0.00  0.00    +0.005 C 
ATOM      9  C   UNL     1      -2.179   3.527 -21.715  0.00  0.00    -0.001 C 
ATOM     10  C   UNL     1      -3.180   3.601 -22.543  0.00  0.00    +0.003 C 
ATOM     11  C   UNL     1      -3.395   3.602 -21.261  0.00  0.00    -0.028 C 
ATOM     12  C   UNL     1      -3.160   3.574 -19.982  0.00  0.00    +0.011 C 
ATOM     13  C   UNL     1      -4.692   3.688 -21.250  0.00  0.00    +0.011 C 
ATOM     14  C   UNL     1      -2.964   3.600 -23.825  0.00  0.00    +0.007 C 
ENDROOT
BRANCH   5  15
ATOM     15  O   UNL     1      -0.317   3.448 -26.016  0.00  0.00    -0.391 OA
ATOM     16  H   UNL     1      -0.306   3.706 -26.951  0.00  0.00    +0.210 HD
ENDBRANCH   5  15
BRANCH   6  17
ATOM     17  C   UNL     1      -0.533   3.449 -24.734  0.00  0.00    +0.165 C 
BRANCH  17  18
ATOM     18  O   UNL     1      -0.315   3.004 -25.936  0.00  0.00    -0.394 OA
ATOM     19  H   UNL     1      -0.183   2.043 -25.906  0.00  0.00    +0.209 HD
ENDBRANCH  17  18
ENDBRANCH   6  17
TORSDOF 3
ENDMDL
MODEL 5
REMARK VINA RESULT:    -9.117      2.349      4.677
REMARK INTER + INTRA:          -8.082
REMARK INTER:                  -9.920
REMARK INTRA:                   1.838
REMARK UNBOUND:                 1.834
REMARK  Name = C[C@@H]1CC[C@H](O)[C@]2(CO)CC[C@@H]3[C@@H]([C@@H]12)C3(C)C           ZINC000249694002
REMARK  6 active torsions:
REMARK  status: ('A' for Active; 'I' for Inactive)
REMARK    1  A    between atoms: C_1  and  C_2
REMARK    2  A    between atoms: C_5  and  O_6
REMARK    3  A    between atoms: C_7  and  C_8
REMARK    4  A    between atoms: C_8  and  O_9
REMARK    5  A    between atoms: C_15  and  C_16
REMARK    6  A    between atoms: C_15  and  C_17
REMARK                            x       y       z     vdW  Elec       q    Type
REMARK                         _______ _______ _______ _____ _____    ______ ____
ROOT
ATOM      1  C   UNL     1      -3.246   4.212 -25.393  0.00  0.00    +0.008 C 
ATOM      2  C   UNL     1      -2.270   3.722 -24.687  0.00  0.00    -0.010 C 
ATOM      3  C   UNL     1      -1.062   3.712 -25.167  0.00  0.00    +0.006 C 
ATOM      4  C   UNL     1      -0.086   3.222 -24.462  0.00  0.00    +0.032 C 
ATOM      5  C   UNL     1      -0.318   2.742 -23.276  0.00  0.00    +0.123 C 
ATOM      6  C   UNL     1      -1.526   2.752 -22.796  0.00  0.00    +0.023 C 
ATOM      7  C   UNL     1      -1.758   2.272 -21.610  0.00  0.00    +0.012 C 
ATOM      8  C   UNL     1      -2.966   2.281 -21.130  0.00  0.00    +0.005 C 
ATOM      9  C   UNL     1      -3.942   2.771 -21.836  0.00  0.00    -0.001 C 
ATOM     10  C   UNL     1      -3.710   3.251 -23.022  0.00  0.00    +0.003 C 
ATOM     11  C   UNL     1      -4.918   3.261 -22.542  0.00  0.00    -0.028 C 
ATOM     12  C   UNL     1      -5.907   3.078 -21.717  0.00  0.00    +0.011 C 
ATOM     13  C   UNL     1      -5.551   3.814 -23.533  0.00  0.00    +0.011 C 
ATOM     14  C   UNL     1      -2.502   3.242 -23.502  0.00  0.00    +0.007 C 
ENDROOT
BRANCH   5  15
ATOM     15  O   UNL     1       0.658   2.253 -22.570  0.00  0.00    -0.391 OA
ATOM     16  H   UNL     1       1.489   2.344 -23.062  0.00  0.00    +0.210 HD
ENDBRANCH   5  15
BRANCH   6  17
ATOM     17  C   UNL     1      -0.550   2.262 -22.090  0.00  0.00    +0.165 C 
BRANCH  17  18
ATOM     18  O   UNL     1       0.039   1.166 -22.467  0.00  0.00    -0.394 OA
ATOM     19  H   UNL     1       0.176   1.187 -23.428  0.00  0.00    +0.209 HD
ENDBRANCH  17  18
ENDBRANCH   6  17
TORSDOF 3
ENDMDL
MODEL 6
REMARK VINA RESULT:    -9.009      1.330      2.237
REMARK INTER + INTRA:          -7.965
REMARK INTER:                 -10.252
REMARK INTRA:                   2.288
REMARK UNBOUND:                 1.834
REMARK  Name = C[C@@H]1CC[C@H](O)[C@]2(CO)CC[C@@H]3[C@@H]([C@@H]12)C3(C)C           ZINC000249694002
REMARK  6 active torsions:
REMARK  status: ('A' for Active; 'I' for Inactive)
REMARK    1  A    between atoms: C_1  and  C_2
REMARK    2  A    between atoms: C_5  and  O_6
REMARK    3  A    between atoms: C_7  and  C_8
REMARK    4  A    between atoms: C_8  and  O_9
REMARK    5  A    between atoms: C_15  and  C_16
REMARK    6  A    between atoms: C_15  and  C_17
REMARK                            x       y       z     vdW  Elec       q    Type
REMARK                         _______ _______ _______ _____ _____    ______ ____
ROOT
ATOM      1  C   UNL     1      -1.265   2.253 -21.300  0.00  0.00    +0.008 C 
ATOM      2  C   UNL     1      -2.435   2.624 -21.729  0.00  0.00    -0.010 C 
ATOM      3  C   UNL     1      -3.478   2.499 -20.963  0.00  0.00    +0.006 C 
ATOM      4  C   UNL     1      -4.648   2.870 -21.392  0.00  0.00    +0.032 C 
ATOM      5  C   UNL     1      -4.775   3.366 -22.587  0.00  0.00    +0.123 C 
ATOM      6  C   UNL     1      -3.732   3.491 -23.353  0.00  0.00    +0.023 C 
ATOM      7  C   UNL     1      -3.859   3.987 -24.549  0.00  0.00    +0.012 C 
ATOM      8  C   UNL     1      -2.816   4.111 -25.315  0.00  0.00    +0.005 C 
ATOM      9  C   UNL     1      -1.646   3.740 -24.886  0.00  0.00    -0.001 C 
ATOM     10  C   UNL     1      -1.519   3.244 -23.691  0.00  0.00    +0.003 C 
ATOM     11  C   UNL     1      -0.477   3.369 -24.457  0.00  0.00    -0.028 C 
ATOM     12  C   UNL     1       0.248   3.657 -25.498  0.00  0.00    +0.011 C 
ATOM     13  C   UNL     1       0.442   2.898 -23.667  0.00  0.00    +0.011 C 
ATOM     14  C   UNL     1      -2.562   3.120 -22.924  0.00  0.00    +0.007 C 
ENDROOT
BRANCH   5  15
ATOM     15  O   UNL     1      -5.945   3.738 -23.016  0.00  0.00    -0.391 OA
ATOM     16  H   UNL     1      -6.116   3.331 -23.879  0.00  0.00    +0.210 HD
ENDBRANCH   5  15
BRANCH   6  17
ATOM     17  C   UNL     1      -4.902   3.862 -23.782  0.00  0.00    +0.165 C 
BRANCH  17  18
ATOM     18  O   UNL     1      -5.942   3.753 -23.010  0.00  0.00    -0.394 OA
ATOM     19  H   UNL     1      -6.585   4.445 -23.234  0.00  0.00    +0.209 HD
ENDBRANCH  17  18
ENDBRANCH   6  17
TORSDOF 3
ENDMDL
MODEL 7
REMARK VINA RESULT:    -8.976      1.569      3.683
REMARK INTER + INTRA:          -7.929
REMARK INTER:                  -9.825
REMARK INTRA:                   1.897
REMARK UNBOUND:                 1.834
REMARK  Name = C[C@@H]1CC[C@H](O)[C@]2(CO)CC[C@@H]3[C@@H]([C@@H]12)C3(C)C           ZINC000249694002
REMARK  6 active torsions:
REMARK  status: ('A' for Active; 'I' for Inactive)
REMARK    1  A    between atoms: C_1  and  C_2
REMARK    2  A    between atoms: C_5  and  O_6
REMARK    3  A    between atoms: C_7  and  C_8
REMARK    4  A    between atoms: C_8  and  O_9
REMARK    5  A    between atoms: C_15  and  C_16
REMARK    6  A    between atoms: C_15  and  C_17
REMARK                            x       y       z     vdW  Elec       q    Type
REMARK                         _______ _______ _______ _____ _____    ______ ____
ROOT
ATOM      1  C   UNL     1      -1.462   2.233 -21.023  0.00  0.00    +0.008 C 
ATOM      2  C   UNL     1      -1.209   2.637 -22.233  0.00  0.00    -0.010 C 
ATOM      3  C   UNL     1       0.013   2.637 -22.676  0.00  0.00    +0.006 C 
ATOM      4  C   UNL     1       0.265   3.040 -23.886  0.00  0.00    +0.032 C 
ATOM      5  C   UNL     1      -0.704   3.444 -24.653  0.00  0.00    +0.123 C 
ATOM      6  C   UNL     1      -1.926   3.444 -24.209  0.00  0.00    +0.023 C 
ATOM      7  C   UNL     1      -2.896   3.847 -24.976  0.00  0.00    +0.012 C 
ATOM      8  C   UNL     1      -4.118   3.847 -24.532  0.00  0.00    +0.005 C 
ATOM      9  C   UNL     1      -4.371   3.444 -23.323  0.00  0.00    -0.001 C 
ATOM     10  C   UNL     1      -3.401   3.040 -22.556  0.00  0.00    +0.003 C 
ATOM     11  C   UNL     1      -4.623   3.040 -22.113  0.00  0.00    -0.028 C 
ATOM     12  C   UNL     1      -5.913   3.200 -22.087  0.00  0.00    +0.011 C 
ATOM     13  C   UNL     1      -4.428   2.582 -20.912  0.00  0.00    +0.011 C 
ATOM     14  C   UNL     1      -2.179   3.040 -22.999  0.00  0.00    +0.007 C 
ENDROOT
BRANCH   5  15
ATOM     15  O   UNL     1      -0.452   3.847 -25.863  0.00  0.00    -0.391 OA
ATOM     16  H   UNL     1      -0.105   4.752 -25.835  0.00  0.00    +0.210 HD
ENDBRANCH   5  15
BRANCH   6  17
ATOM     17  C   UNL     1      -1.674   3.847 -25.419  0.00  0.00    +0.165 C 
BRANCH  17  18
ATOM     18  O   UNL     1      -0.907   3.139 -26.194  0.00  0.00    -0.394 OA
ATOM     19  H   UNL     1      -0.092   2.909 -25.720  0.00  0.00    +0.209 HD
ENDBRANCH  17  18
ENDBRANCH   6  17
TORSDOF 3
ENDMDL
MODEL 8
REMARK VINA RESULT:    -8.923      2.223      4.134
REMARK INTER + INTRA:          -7.871
REMARK INTER:                  -9.749
REMARK INTRA:                   1.878
REMARK UNBOUND:                 1.834
REMARK  Name = C[C@@H]1CC[C@H](O)[C@]2(CO)CC[C@@H]3[C@@H]([C@@H]12)C3(C)C           ZINC000249694002
REMARK  6 active torsions:
REMARK  status: ('A' for Active; 'I' for Inactive)
REMARK    1  A    between atoms: C_1  and  C_2
REMARK    2  A    between atoms: C_5  and  O_6
REMARK    3  A    between atoms: C_7  and  C_8
REMARK    4  A    between atoms: C_8  and  O_9
REMARK    5  A    between atoms: C_15  and  C_16
REMARK    6  A    between atoms: C_15  and  C_17
REMARK                            x       y       z     vdW  Elec       q    Type
REMARK                         _______ _______ _______ _____ _____    ______ ____
ROOT
ATOM      1  C   UNL     1      -3.234   2.625 -21.023  0.00  0.00    +0.008 C 
ATOM      2  C   UNL     1      -2.135   2.604 -21.718  0.00  0.00    -0.010 C 
ATOM      3  C   UNL     1      -1.026   2.204 -21.169  0.00  0.00    +0.006 C 
ATOM      4  C   UNL     1       0.072   2.183 -21.864  0.00  0.00    +0.032 C 
ATOM      5  C   UNL     1       0.062   2.562 -23.108  0.00  0.00    +0.123 C 
ATOM      6  C   UNL     1      -1.046   2.962 -23.657  0.00  0.00    +0.023 C 
ATOM      7  C   UNL     1      -1.056   3.340 -24.900  0.00  0.00    +0.012 C 
ATOM      8  C   UNL     1      -2.165   3.740 -25.449  0.00  0.00    +0.005 C 
ATOM      9  C   UNL     1      -3.263   3.761 -24.754  0.00  0.00    -0.001 C 
ATOM     10  C   UNL     1      -3.253   3.383 -23.511  0.00  0.00    +0.003 C 
ATOM     11  C   UNL     1      -4.362   3.782 -24.060  0.00  0.00    -0.028 C 
ATOM     12  C   UNL     1      -5.189   4.229 -24.959  0.00  0.00    +0.011 C 
ATOM     13  C   UNL     1      -5.174   3.648 -23.053  0.00  0.00    +0.011 C 
ATOM     14  C   UNL     1      -2.145   2.983 -22.962  0.00  0.00    +0.007 C 
ENDROOT
BRANCH   5  15
ATOM     15  O   UNL     1       1.161   2.541 -23.803  0.00  0.00    -0.391 OA
ATOM     16  H   UNL     1       1.314   3.416 -24.191  0.00  0.00    +0.210 HD
ENDBRANCH   5  15
BRANCH   6  17
ATOM     17  C   UNL     1       0.053   2.941 -24.351  0.00  0.00    +0.165 C 
BRANCH  17  18
ATOM     18  O   UNL     1       0.787   1.868 -24.375  0.00  0.00    -0.394 OA
ATOM     19  H   UNL     1       1.692   2.101 -24.634  0.00  0.00    +0.209 HD
ENDBRANCH  17  18
ENDBRANCH   6  17
TORSDOF 3
ENDMDL
MODEL 9
REMARK VINA RESULT:    -8.657      3.606      5.904
REMARK INTER + INTRA:          -7.581
REMARK INTER:                  -9.416
REMARK INTRA:                   1.834
REMARK UNBOUND:                 1.834
REMARK  Name = C[C@@H]1CC[C@H](O)[C@]2(CO)CC[C@@H]3[C@@H]([C@@H]12)C3(C)C           ZINC000249694002
REMARK  6 active torsions:
REMARK  status: ('A' for Active; 'I' for Inactive)
REMARK    1  A    between atoms: C_1  and  C_2
REMARK    2  A    between atoms: C_5  and  O_6
REMARK    3  A    between atoms: C_7  and  C_8
REMARK    4  A    between atoms: C_8  and  O_9
REMARK    5  A    between atoms: C_15  and  C_16
REMARK    6  A    between atoms: C_15  and  C_17
REMARK                            x       y       z     vdW  Elec       q    Type
REMARK                         _______ _______ _______ _____ _____    ______ ____
ROOT
ATOM      1  C   UNL     1      -0.121   3.953 -25.040  0.00  0.00    +0.008 C 
ATOM      2  C   UNL     1       0.759   3.136 -24.540  0.00  0.00    -0.010 C 
ATOM      3  C   UNL     1       1.844   2.864 -25.202  0.00  0.00    +0.006 C 
ATOM      4  C   UNL     1       2.723   2.047 -24.701  0.00  0.00    +0.032 C 
ATOM      5  C   UNL     1       2.517   1.503 -23.539  0.00  0.00    +0.123 C 
ATOM      6  C   UNL     1       1.432   1.775 -22.877  0.00  0.00    +0.023 C 
ATOM      7  C   UNL     1       1.226   1.230 -21.714  0.00  0.00    +0.012 C 
ATOM      8  C   UNL     1       0.141   1.502 -21.052  0.00  0.00    +0.005 C 
ATOM      9  C   UNL     1      -0.738   2.319 -21.552  0.00  0.00    -0.001 C 
ATOM     10  C   UNL     1      -0.532   2.863 -22.715  0.00  0.00    +0.003 C 
ATOM     11  C   UNL     1      -1.618   3.135 -22.053  0.00  0.00    -0.028 C 
ATOM     12  C   UNL     1      -2.505   3.122 -21.102  0.00  0.00    +0.011 C 
ATOM     13  C   UNL     1      -2.189   3.956 -22.883  0.00  0.00    +0.011 C 
ATOM     14  C   UNL     1       0.553   2.591 -23.377  0.00  0.00    +0.007 C 
ENDROOT
BRANCH   5  15
ATOM     15  O   UNL     1       3.397   0.686 -23.038  0.00  0.00    -0.391 OA
ATOM     16  H   UNL     1       3.265   0.619 -22.080  0.00  0.00    +0.210 HD
ENDBRANCH   5  15
BRANCH   6  17
ATOM     17  C   UNL     1       2.311   0.958 -22.376  0.00  0.00    +0.165 C 
BRANCH  17  18
ATOM     18  O   UNL     1       2.534  -0.188 -22.948  0.00  0.00    -0.394 OA
ATOM     19  H   UNL     1       1.698  -0.549 -23.284  0.00  0.00    +0.209 HD
ENDBRANCH  17  18
ENDBRANCH   6  17
TORSDOF 3
ENDMDL
