MODEL 1
REMARK VINA RESULT:    -9.854      0.000      0.000
REMARK INTER + INTRA:         -12.989
REMARK INTER:                 -12.267
REMARK INTRA:                  -0.722
REMARK UNBOUND:                -0.254
REMARK  Name = ZINC000000518629
REMARK  6 active torsions:
REMARK  status: ('A' for Active; 'I' for Inactive)
REMARK    1  A    between atoms: C_1  and  O_2
REMARK    2  A    between atoms: O_2  and  C_3
REMARK    3  A    between atoms: C_6  and  C_7
REMARK    4  A    between atoms: C_7  and  O_9
REMARK    5  A    between atoms: O_9  and  C_10
REMARK    6  A    between atoms: C_10  and  C_11
REMARK                            x       y       z     vdW  Elec       q    Type
REMARK                         _______ _______ _______ _____ _____    ______ ____
ROOT
ATOM      1  C   UNL     1      -1.368   4.329 -24.242  0.00  0.00    +0.241 C 
ENDROOT
BRANCH   1   2
ATOM      2  C   UNL     1      -2.648   4.152 -24.103  0.00  0.00    +0.075 C 
ATOM      3  C   UNL     1      -3.453   4.436 -25.083  0.00  0.00    +0.017 C 
ATOM      4  C   UNL     1      -4.734   4.259 -24.944  0.00  0.00    +0.051 C 
ATOM      5  C   UNL     1      -5.209   3.798 -23.826  0.00  0.00    +0.131 C 
ATOM      6  N   UNL     1      -4.404   3.513 -22.845  0.00  0.00    +0.238 N 
ATOM      7  H   UNL     1      -5.405   3.369 -22.721  0.00  0.00    +0.204 HD
ATOM      8  C   UNL     1      -4.879   3.052 -21.727  0.00  0.00    +0.131 C 
ATOM      9  C   UNL     1      -4.073   2.768 -20.747  0.00  0.00    +0.051 C 
ATOM     10  C   UNL     1      -2.793   2.945 -20.886  0.00  0.00    +0.011 C 
ATOM     11  C   UNL     1      -2.317   3.406 -22.004  0.00  0.00    +0.055 C 
ATOM     12  C   UNL     1      -3.123   3.691 -22.985  0.00  0.00    +0.071 C 
ENDBRANCH   1   2
BRANCH   1  13
ATOM     13  O   UNL     1      -0.643   3.414 -24.813  0.00  0.00    -0.461 OA
BRANCH  13  14
ATOM     14  C   UNL     1       0.651   3.538 -24.850  0.00  0.00    +0.339 C 
ATOM     15  O   UNL     1       1.219   4.119 -25.864  0.00  0.00    -0.245 OA
BRANCH  14  19
ATOM     16  C   UNL     1       2.826   2.165 -21.917  0.00  0.00    +0.120 A 
ATOM     17  C   UNL     1       1.643   1.672 -22.135  0.00  0.00    +0.046 A 
ATOM     18  C   UNL     1       0.918   2.129 -23.113  0.00  0.00    +0.018 A 
ATOM     19  C   UNL     1       1.376   3.080 -23.872  0.00  0.00    +0.059 A 
ATOM     20  C   UNL     1       2.559   3.574 -23.654  0.00  0.00    +0.018 A 
ATOM     21  C   UNL     1       3.283   3.117 -22.677  0.00  0.00    +0.046 A 
BRANCH  16  23
ATOM     22  C   UNL     1       3.839   0.443 -20.882  0.00  0.00    +0.277 C 
ATOM     23  O   UNL     1       3.551   1.709 -20.940  0.00  0.00    -0.495 OA
ENDBRANCH  16  23
ENDBRANCH  14  19
ENDBRANCH  13  14
ENDBRANCH   1  13
TORSDOF 5
ENDMDL
MODEL 2
REMARK VINA RESULT:    -9.678      1.099      2.285
REMARK INTER + INTRA:         -12.761
REMARK INTER:                 -11.781
REMARK INTRA:                  -0.980
REMARK UNBOUND:                -0.254
REMARK  Name = ZINC000000518629
REMARK  6 active torsions:
REMARK  status: ('A' for Active; 'I' for Inactive)
REMARK    1  A    between atoms: C_1  and  O_2
REMARK    2  A    between atoms: O_2  and  C_3
REMARK    3  A    between atoms: C_6  and  C_7
REMARK    4  A    between atoms: C_7  and  O_9
REMARK    5  A    between atoms: O_9  and  C_10
REMARK    6  A    between atoms: C_10  and  C_11
REMARK                            x       y       z     vdW  Elec       q    Type
REMARK                         _______ _______ _______ _____ _____    ______ ____
ROOT
ATOM      1  C   UNL     1      -1.082   3.579 -24.353  0.00  0.00    +0.241 C 
ENDROOT
BRANCH   1   2
ATOM      2  C   UNL     1      -1.751   3.313 -23.270  0.00  0.00    +0.075 C 
ATOM      3  C   UNL     1      -1.126   2.923 -22.199  0.00  0.00    +0.017 C 
ATOM      4  C   UNL     1      -1.795   2.657 -21.117  0.00  0.00    +0.051 C 
ATOM      5  C   UNL     1      -3.089   2.781 -21.105  0.00  0.00    +0.131 C 
ATOM      6  N   UNL     1      -3.715   3.172 -22.176  0.00  0.00    +0.238 N 
ATOM      7  H   UNL     1      -4.253   2.967 -21.335  0.00  0.00    +0.204 HD
ATOM      8  C   UNL     1      -5.009   3.296 -22.165  0.00  0.00    +0.131 C 
ATOM      9  C   UNL     1      -5.633   3.686 -23.236  0.00  0.00    +0.051 C 
ATOM     10  C   UNL     1      -4.964   3.952 -24.318  0.00  0.00    +0.011 C 
ATOM     11  C   UNL     1      -3.670   3.828 -24.330  0.00  0.00    +0.055 C 
ATOM     12  C   UNL     1      -3.044   3.437 -23.259  0.00  0.00    +0.071 C 
ENDBRANCH   1   2
BRANCH   1  13
ATOM     13  O   UNL     1       0.001   4.295 -24.288  0.00  0.00    -0.461 OA
BRANCH  13  14
ATOM     14  C   UNL     1       1.073   3.911 -24.915  0.00  0.00    +0.339 C 
ATOM     15  O   UNL     1       1.255   4.246 -26.158  0.00  0.00    -0.245 OA
BRANCH  14  19
ATOM     16  C   UNL     1       3.745   1.752 -23.067  0.00  0.00    +0.120 A 
ATOM     17  C   UNL     1       3.249   1.345 -24.198  0.00  0.00    +0.046 A 
ATOM     18  C   UNL     1       2.358   2.064 -24.814  0.00  0.00    +0.018 A 
ATOM     19  C   UNL     1       1.964   3.191 -24.299  0.00  0.00    +0.059 A 
ATOM     20  C   UNL     1       2.460   3.599 -23.168  0.00  0.00    +0.018 A 
ATOM     21  C   UNL     1       3.349   2.879 -22.553  0.00  0.00    +0.046 A 
BRANCH  16  23
ATOM     22  C   UNL     1       4.351   0.488 -21.306  0.00  0.00    +0.277 C 
ATOM     23  O   UNL     1       4.635   1.033 -22.451  0.00  0.00    -0.495 OA
ENDBRANCH  16  23
ENDBRANCH  14  19
ENDBRANCH  13  14
ENDBRANCH   1  13
TORSDOF 5
ENDMDL
MODEL 3
REMARK VINA RESULT:    -9.543      1.705      2.565
REMARK INTER + INTRA:         -12.587
REMARK INTER:                 -11.944
REMARK INTRA:                  -0.643
REMARK UNBOUND:                -0.254
REMARK  Name = ZINC000000518629
REMARK  6 active torsions:
REMARK  status: ('A' for Active; 'I' for Inactive)
REMARK    1  A    between atoms: C_1  and  O_2
REMARK    2  A    between atoms: O_2  and  C_3
REMARK    3  A    between atoms: C_6  and  C_7
REMARK    4  A    between atoms: C_7  and  O_9
REMARK    5  A    between atoms: O_9  and  C_10
REMARK    6  A    between atoms: C_10  and  C_11
REMARK                            x       y       z     vdW  Elec       q    Type
REMARK                         _______ _______ _______ _____ _____    ______ ____
ROOT
ATOM      1  C   UNL     1      -1.207   2.301 -23.092  0.00  0.00    +0.241 C 
ENDROOT
BRANCH   1   2
ATOM      2  C   UNL     1      -2.165   2.846 -23.782  0.00  0.00    +0.075 C 
ATOM      3  C   UNL     1      -1.954   3.209 -25.012  0.00  0.00    +0.017 C 
ATOM      4  C   UNL     1      -2.912   3.754 -25.702  0.00  0.00    +0.051 C 
ATOM      5  C   UNL     1      -4.080   3.934 -25.162  0.00  0.00    +0.131 C 
ATOM      6  N   UNL     1      -4.292   3.571 -23.932  0.00  0.00    +0.238 N 
ATOM      7  H   UNL     1      -5.053   3.997 -24.460  0.00  0.00    +0.204 HD
ATOM      8  C   UNL     1      -5.460   3.752 -23.392  0.00  0.00    +0.131 C 
ATOM      9  C   UNL     1      -5.671   3.388 -22.162  0.00  0.00    +0.051 C 
ATOM     10  C   UNL     1      -4.713   2.844 -21.472  0.00  0.00    +0.011 C 
ATOM     11  C   UNL     1      -3.544   2.663 -22.012  0.00  0.00    +0.055 C 
ATOM     12  C   UNL     1      -3.333   3.026 -23.242  0.00  0.00    +0.071 C 
ENDBRANCH   1   2
BRANCH   1  13
ATOM     13  O   UNL     1      -0.044   2.103 -23.638  0.00  0.00    -0.461 OA
BRANCH  13  14
ATOM     14  C   UNL     1       0.997   1.886 -22.890  0.00  0.00    +0.339 C 
ATOM     15  O   UNL     1       1.051   0.823 -22.144  0.00  0.00    -0.245 OA
BRANCH  14  19
ATOM     16  C   UNL     1       3.958   4.425 -22.885  0.00  0.00    +0.120 A 
ATOM     17  C   UNL     1       4.153   3.199 -22.501  0.00  0.00    +0.046 A 
ATOM     18  C   UNL     1       3.166   2.352 -22.502  0.00  0.00    +0.018 A 
ATOM     19  C   UNL     1       1.984   2.733 -22.888  0.00  0.00    +0.059 A 
ATOM     20  C   UNL     1       1.789   3.959 -23.273  0.00  0.00    +0.018 A 
ATOM     21  C   UNL     1       2.775   4.805 -23.271  0.00  0.00    +0.046 A 
BRANCH  16  23
ATOM     22  C   UNL     1       6.167   4.845 -22.991  0.00  0.00    +0.277 C 
ATOM     23  O   UNL     1       4.944   5.272 -22.883  0.00  0.00    -0.495 OA
ENDBRANCH  16  23
ENDBRANCH  14  19
ENDBRANCH  13  14
ENDBRANCH   1  13
TORSDOF 5
ENDMDL
MODEL 4
REMARK VINA RESULT:    -9.279      1.632      3.189
REMARK INTER + INTRA:         -12.245
REMARK INTER:                 -11.591
REMARK INTRA:                  -0.654
REMARK UNBOUND:                -0.254
REMARK  Name = ZINC000000518629
REMARK  6 active torsions:
REMARK  status: ('A' for Active; 'I' for Inactive)
REMARK    1  A    between atoms: C_1  and  O_2
REMARK    2  A    between atoms: O_2  and  C_3
REMARK    3  A    between atoms: C_6  and  C_7
REMARK    4  A    between atoms: C_7  and  O_9
REMARK    5  A    between atoms: O_9  and  C_10
REMARK    6  A    between atoms: C_10  and  C_11
REMARK                            x       y       z     vdW  Elec       q    Type
REMARK                         _______ _______ _______ _____ _____    ______ ____
ROOT
ATOM      1  C   UNL     1      -1.045   2.275 -23.101  0.00  0.00    +0.241 C 
ENDROOT
BRANCH   1   2
ATOM      2  C   UNL     1      -2.203   2.669 -22.659  0.00  0.00    +0.075 C 
ATOM      3  C   UNL     1      -2.448   2.664 -21.383  0.00  0.00    +0.017 C 
ATOM      4  C   UNL     1      -3.606   3.058 -20.942  0.00  0.00    +0.051 C 
ATOM      5  C   UNL     1      -4.518   3.457 -21.777  0.00  0.00    +0.131 C 
ATOM      6  N   UNL     1      -4.274   3.463 -23.054  0.00  0.00    +0.238 N 
ATOM      7  H   UNL     1      -5.186   3.775 -22.723  0.00  0.00    +0.204 HD
ATOM      8  C   UNL     1      -5.186   3.863 -23.889  0.00  0.00    +0.131 C 
ATOM      9  C   UNL     1      -4.940   3.868 -25.165  0.00  0.00    +0.051 C 
ATOM     10  C   UNL     1      -3.783   3.474 -25.607  0.00  0.00    +0.011 C 
ATOM     11  C   UNL     1      -2.870   3.074 -24.772  0.00  0.00    +0.055 C 
ATOM     12  C   UNL     1      -3.115   3.069 -23.494  0.00  0.00    +0.071 C 
ENDBRANCH   1   2
BRANCH   1  13
ATOM     13  O   UNL     1       0.046   2.752 -22.580  0.00  0.00    -0.461 OA
BRANCH  13  14
ATOM     14  C   UNL     1       1.064   1.970 -22.374  0.00  0.00    +0.339 C 
ATOM     15  O   UNL     1       0.873   0.718 -22.080  0.00  0.00    -0.245 OA
BRANCH  14  19
ATOM     16  C   UNL     1       4.691   3.380 -22.637  0.00  0.00    +0.120 A 
ATOM     17  C   UNL     1       3.726   3.939 -23.306  0.00  0.00    +0.046 A 
ATOM     18  C   UNL     1       2.517   3.468 -23.218  0.00  0.00    +0.018 A 
ATOM     19  C   UNL     1       2.273   2.440 -22.461  0.00  0.00    +0.059 A 
ATOM     20  C   UNL     1       3.238   1.881 -21.792  0.00  0.00    +0.018 A 
ATOM     21  C   UNL     1       4.446   2.351 -21.880  0.00  0.00    +0.046 A 
BRANCH  16  23
ATOM     22  C   UNL     1       6.632   3.570 -23.761  0.00  0.00    +0.277 C 
ATOM     23  O   UNL     1       5.900   3.850 -22.724  0.00  0.00    -0.495 OA
ENDBRANCH  16  23
ENDBRANCH  14  19
ENDBRANCH  13  14
ENDBRANCH   1  13
TORSDOF 5
ENDMDL
MODEL 5
REMARK VINA RESULT:    -8.451      2.673      7.218
REMARK INTER + INTRA:         -11.175
REMARK INTER:                 -10.534
REMARK INTRA:                  -0.641
REMARK UNBOUND:                -0.254
REMARK  Name = ZINC000000518629
REMARK  6 active torsions:
REMARK  status: ('A' for Active; 'I' for Inactive)
REMARK    1  A    between atoms: C_1  and  O_2
REMARK    2  A    between atoms: O_2  and  C_3
REMARK    3  A    between atoms: C_6  and  C_7
REMARK    4  A    between atoms: C_7  and  O_9
REMARK    5  A    between atoms: O_9  and  C_10
REMARK    6  A    between atoms: C_10  and  C_11
REMARK                            x       y       z     vdW  Elec       q    Type
REMARK                         _______ _______ _______ _____ _____    ______ ____
ROOT
ATOM      1  C   UNL     1       1.378   3.153 -23.334  0.00  0.00    +0.241 C 
ENDROOT
BRANCH   1   2
ATOM      2  C   UNL     1       2.301   2.506 -22.687  0.00  0.00    +0.075 C 
ATOM      3  C   UNL     1       2.018   1.379 -22.104  0.00  0.00    +0.017 C 
ATOM      4  C   UNL     1       2.941   0.732 -21.457  0.00  0.00    +0.051 C 
ATOM      5  C   UNL     1       4.148   1.211 -21.393  0.00  0.00    +0.131 C 
ATOM      6  N   UNL     1       4.432   2.338 -21.976  0.00  0.00    +0.238 N 
ATOM      7  H   UNL     1       5.166   1.843 -21.472  0.00  0.00    +0.204 HD
ATOM      8  C   UNL     1       5.638   2.818 -21.912  0.00  0.00    +0.131 C 
ATOM      9  C   UNL     1       5.921   3.945 -22.495  0.00  0.00    +0.051 C 
ATOM     10  C   UNL     1       4.998   4.592 -23.142  0.00  0.00    +0.011 C 
ATOM     11  C   UNL     1       3.791   4.113 -23.206  0.00  0.00    +0.055 C 
ATOM     12  C   UNL     1       3.507   2.985 -22.623  0.00  0.00    +0.071 C 
ENDBRANCH   1   2
BRANCH   1  13
ATOM     13  O   UNL     1       0.128   3.003 -23.007  0.00  0.00    -0.461 OA
BRANCH  13  14
ATOM     14  C   UNL     1      -0.655   4.039 -22.943  0.00  0.00    +0.339 C 
ATOM     15  O   UNL     1      -0.152   5.237 -22.963  0.00  0.00    -0.245 OA
BRANCH  14  19
ATOM     16  C   UNL     1      -4.517   3.548 -22.690  0.00  0.00    +0.120 A 
ATOM     17  C   UNL     1      -3.968   3.801 -23.841  0.00  0.00    +0.046 A 
ATOM     18  C   UNL     1      -2.680   3.964 -23.926  0.00  0.00    +0.018 A 
ATOM     19  C   UNL     1      -1.943   3.875 -22.858  0.00  0.00    +0.059 A 
ATOM     20  C   UNL     1      -2.492   3.623 -21.707  0.00  0.00    +0.018 A 
ATOM     21  C   UNL     1      -3.778   3.460 -21.623  0.00  0.00    +0.046 A 
BRANCH  16  23
ATOM     22  C   UNL     1      -6.303   2.642 -21.663  0.00  0.00    +0.277 C 
ATOM     23  O   UNL     1      -5.803   3.385 -22.605  0.00  0.00    -0.495 OA
ENDBRANCH  16  23
ENDBRANCH  14  19
ENDBRANCH  13  14
ENDBRANCH   1  13
TORSDOF 5
ENDMDL
MODEL 6
REMARK VINA RESULT:    -8.447      2.848      7.089
REMARK INTER + INTRA:         -11.171
REMARK INTER:                 -10.120
REMARK INTRA:                  -1.050
REMARK UNBOUND:                -0.254
REMARK  Name = ZINC000000518629
REMARK  6 active torsions:
REMARK  status: ('A' for Active; 'I' for Inactive)
REMARK    1  A    between atoms: C_1  and  O_2
REMARK    2  A    between atoms: O_2  and  C_3
REMARK    3  A    between atoms: C_6  and  C_7
REMARK    4  A    between atoms: C_7  and  O_9
REMARK    5  A    between atoms: O_9  and  C_10
REMARK    6  A    between atoms: C_10  and  C_11
REMARK                            x       y       z     vdW  Elec       q    Type
REMARK                         _______ _______ _______ _____ _____    ______ ____
ROOT
ATOM      1  C   UNL     1       2.873   1.491 -24.127  0.00  0.00    +0.241 C 
ENDROOT
BRANCH   1   2
ATOM      2  C   UNL     1       3.516   1.394 -23.001  0.00  0.00    +0.075 C 
ATOM      3  C   UNL     1       3.190   0.473 -22.144  0.00  0.00    +0.017 C 
ATOM      4  C   UNL     1       3.833   0.376 -21.018  0.00  0.00    +0.051 C 
ATOM      5  C   UNL     1       4.802   1.200 -20.750  0.00  0.00    +0.131 C 
ATOM      6  N   UNL     1       5.128   2.122 -21.606  0.00  0.00    +0.238 N 
ATOM      7  H   UNL     1       5.641   2.058 -20.728  0.00  0.00    +0.204 HD
ATOM      8  C   UNL     1       6.097   2.946 -21.338  0.00  0.00    +0.131 C 
ATOM      9  C   UNL     1       6.422   3.867 -22.195  0.00  0.00    +0.051 C 
ATOM     10  C   UNL     1       5.779   3.964 -23.321  0.00  0.00    +0.011 C 
ATOM     11  C   UNL     1       4.810   3.140 -23.590  0.00  0.00    +0.055 C 
ATOM     12  C   UNL     1       4.484   2.218 -22.733  0.00  0.00    +0.071 C 
ENDBRANCH   1   2
BRANCH   1  13
ATOM     13  O   UNL     1       1.577   1.586 -24.129  0.00  0.00    -0.461 OA
BRANCH  13  14
ATOM     14  C   UNL     1       1.011   2.756 -24.087  0.00  0.00    +0.339 C 
ATOM     15  O   UNL     1       1.465   3.724 -24.825  0.00  0.00    -0.245 OA
BRANCH  14  19
ATOM     16  C   UNL     1      -2.052   3.358 -21.748  0.00  0.00    +0.120 A 
ATOM     17  C   UNL     1      -1.721   4.255 -22.628  0.00  0.00    +0.046 A 
ATOM     18  C   UNL     1      -0.699   4.054 -23.408  0.00  0.00    +0.018 A 
ATOM     19  C   UNL     1      -0.011   2.956 -23.307  0.00  0.00    +0.059 A 
ATOM     20  C   UNL     1      -0.342   2.059 -22.427  0.00  0.00    +0.018 A 
ATOM     21  C   UNL     1      -1.363   2.260 -21.648  0.00  0.00    +0.046 A 
BRANCH  16  23
ATOM     22  C   UNL     1      -4.280   3.440 -21.435  0.00  0.00    +0.277 C 
ATOM     23  O   UNL     1      -3.073   3.558 -20.968  0.00  0.00    -0.495 OA
ENDBRANCH  16  23
ENDBRANCH  14  19
ENDBRANCH  13  14
ENDBRANCH   1  13
TORSDOF 5
ENDMDL
MODEL 7
REMARK VINA RESULT:    -8.179      2.760      7.024
REMARK INTER + INTRA:         -10.824
REMARK INTER:                 -10.383
REMARK INTRA:                  -0.441
REMARK UNBOUND:                -0.254
REMARK  Name = ZINC000000518629
REMARK  6 active torsions:
REMARK  status: ('A' for Active; 'I' for Inactive)
REMARK    1  A    between atoms: C_1  and  O_2
REMARK    2  A    between atoms: O_2  and  C_3
REMARK    3  A    between atoms: C_6  and  C_7
REMARK    4  A    between atoms: C_7  and  O_9
REMARK    5  A    between atoms: O_9  and  C_10
REMARK    6  A    between atoms: C_10  and  C_11
REMARK                            x       y       z     vdW  Elec       q    Type
REMARK                         _______ _______ _______ _____ _____    ______ ____
ROOT
ATOM      1  C   UNL     1       1.107   3.185 -23.321  0.00  0.00    +0.241 C 
ENDROOT
BRANCH   1   2
ATOM      2  C   UNL     1       2.258   3.760 -23.133  0.00  0.00    +0.075 C 
ATOM      3  C   UNL     1       2.364   5.051 -23.237  0.00  0.00    +0.017 C 
ATOM      4  C   UNL     1       3.514   5.626 -23.048  0.00  0.00    +0.051 C 
ATOM      5  C   UNL     1       4.559   4.910 -22.757  0.00  0.00    +0.131 C 
ATOM      6  N   UNL     1       4.454   3.618 -22.653  0.00  0.00    +0.238 N 
ATOM      7  H   UNL     1       5.363   4.054 -22.503  0.00  0.00    +0.204 HD
ATOM      8  C   UNL     1       5.499   2.902 -22.362  0.00  0.00    +0.131 C 
ATOM      9  C   UNL     1       5.393   1.610 -22.258  0.00  0.00    +0.051 C 
ATOM     10  C   UNL     1       4.242   1.035 -22.447  0.00  0.00    +0.011 C 
ATOM     11  C   UNL     1       3.197   1.751 -22.738  0.00  0.00    +0.055 C 
ATOM     12  C   UNL     1       3.302   3.043 -22.842  0.00  0.00    +0.071 C 
ENDBRANCH   1   2
BRANCH   1  13
ATOM     13  O   UNL     1       0.307   2.986 -22.316  0.00  0.00    -0.461 OA
BRANCH  13  14
ATOM     14  C   UNL     1      -0.626   2.084 -22.396  0.00  0.00    +0.339 C 
ATOM     15  O   UNL     1      -0.309   0.825 -22.462  0.00  0.00    -0.245 OA
BRANCH  14  19
ATOM     16  C   UNL     1      -4.375   3.158 -22.437  0.00  0.00    +0.120 A 
ATOM     17  C   UNL     1      -3.863   2.629 -21.366  0.00  0.00    +0.046 A 
ATOM     18  C   UNL     1      -2.613   2.271 -21.352  0.00  0.00    +0.018 A 
ATOM     19  C   UNL     1      -1.876   2.442 -22.410  0.00  0.00    +0.059 A 
ATOM     20  C   UNL     1      -2.389   2.971 -23.481  0.00  0.00    +0.018 A 
ATOM     21  C   UNL     1      -3.638   3.329 -23.494  0.00  0.00    +0.046 A 
BRANCH  16  23
ATOM     22  C   UNL     1      -6.507   2.822 -21.795  0.00  0.00    +0.277 C 
ATOM     23  O   UNL     1      -5.625   3.516 -22.451  0.00  0.00    -0.495 OA
ENDBRANCH  16  23
ENDBRANCH  14  19
ENDBRANCH  13  14
ENDBRANCH   1  13
TORSDOF 5
ENDMDL
MODEL 8
REMARK VINA RESULT:    -7.702      2.490      6.762
REMARK INTER + INTRA:         -10.207
REMARK INTER:                  -9.857
REMARK INTRA:                  -0.350
REMARK UNBOUND:                -0.254
REMARK  Name = ZINC000000518629
REMARK  6 active torsions:
REMARK  status: ('A' for Active; 'I' for Inactive)
REMARK    1  A    between atoms: C_1  and  O_2
REMARK    2  A    between atoms: O_2  and  C_3
REMARK    3  A    between atoms: C_6  and  C_7
REMARK    4  A    between atoms: C_7  and  O_9
REMARK    5  A    between atoms: O_9  and  C_10
REMARK    6  A    between atoms: C_10  and  C_11
REMARK                            x       y       z     vdW  Elec       q    Type
REMARK                         _______ _______ _______ _____ _____    ______ ____
ROOT
ATOM      1  C   UNL     1       1.915   2.768 -23.863  0.00  0.00    +0.241 C 
ENDROOT
BRANCH   1   2
ATOM      2  C   UNL     1       3.054   3.056 -23.306  0.00  0.00    +0.075 C 
ATOM      3  C   UNL     1       3.686   4.141 -23.640  0.00  0.00    +0.017 C 
ATOM      4  C   UNL     1       4.825   4.428 -23.082  0.00  0.00    +0.051 C 
ATOM      5  C   UNL     1       5.331   3.630 -22.190  0.00  0.00    +0.131 C 
ATOM      6  N   UNL     1       4.700   2.544 -21.855  0.00  0.00    +0.238 N 
ATOM      7  H   UNL     1       5.591   2.756 -21.409  0.00  0.00    +0.204 HD
ATOM      8  C   UNL     1       5.206   1.746 -20.963  0.00  0.00    +0.131 C 
ATOM      9  C   UNL     1       4.574   0.661 -20.628  0.00  0.00    +0.051 C 
ATOM     10  C   UNL     1       3.435   0.374 -21.186  0.00  0.00    +0.011 C 
ATOM     11  C   UNL     1       2.928   1.171 -22.079  0.00  0.00    +0.055 C 
ATOM     12  C   UNL     1       3.560   2.258 -22.413  0.00  0.00    +0.071 C 
ENDBRANCH   1   2
BRANCH   1  13
ATOM     13  O   UNL     1       1.274   3.676 -24.537  0.00  0.00    -0.461 OA
BRANCH  13  14
ATOM     14  C   UNL     1       0.463   4.488 -23.926  0.00  0.00    +0.339 C 
ATOM     15  O   UNL     1       0.869   5.672 -23.576  0.00  0.00    -0.245 OA
BRANCH  14  19
ATOM     16  C   UNL     1      -3.191   3.369 -23.144  0.00  0.00    +0.120 A 
ATOM     17  C   UNL     1      -2.844   3.646 -24.366  0.00  0.00    +0.046 A 
ATOM     18  C   UNL     1      -1.625   4.019 -24.627  0.00  0.00    +0.018 A 
ATOM     19  C   UNL     1      -0.755   4.115 -23.665  0.00  0.00    +0.059 A 
ATOM     20  C   UNL     1      -1.103   3.838 -22.443  0.00  0.00    +0.018 A 
ATOM     21  C   UNL     1      -2.320   3.466 -22.183  0.00  0.00    +0.046 A 
BRANCH  16  23
ATOM     22  C   UNL     1      -5.011   3.443 -21.822  0.00  0.00    +0.277 C 
ATOM     23  O   UNL     1      -4.409   2.996 -22.883  0.00  0.00    -0.495 OA
ENDBRANCH  16  23
ENDBRANCH  14  19
ENDBRANCH  13  14
ENDBRANCH   1  13
TORSDOF 5
ENDMDL
MODEL 9
REMARK VINA RESULT:    -7.338      1.848      3.269
REMARK INTER + INTRA:          -9.737
REMARK INTER:                  -9.483
REMARK INTRA:                  -0.254
REMARK UNBOUND:                -0.254
REMARK  Name = ZINC000000518629
REMARK  6 active torsions:
REMARK  status: ('A' for Active; 'I' for Inactive)
REMARK    1  A    between atoms: C_1  and  O_2
REMARK    2  A    between atoms: O_2  and  C_3
REMARK    3  A    between atoms: C_6  and  C_7
REMARK    4  A    between atoms: C_7  and  O_9
REMARK    5  A    between atoms: O_9  and  C_10
REMARK    6  A    between atoms: C_10  and  C_11
REMARK                            x       y       z     vdW  Elec       q    Type
REMARK                         _______ _______ _______ _____ _____    ______ ____
ROOT
ATOM      1  C   UNL     1      -2.067   4.092 -22.778  0.00  0.00    +0.241 C 
ENDROOT
BRANCH   1   2
ATOM      2  C   UNL     1      -3.211   3.875 -23.356  0.00  0.00    +0.075 C 
ATOM      3  C   UNL     1      -4.303   3.859 -22.650  0.00  0.00    +0.017 C 
ATOM      4  C   UNL     1      -5.447   3.643 -23.228  0.00  0.00    +0.051 C 
ATOM      5  C   UNL     1      -5.500   3.443 -24.511  0.00  0.00    +0.131 C 
ATOM      6  N   UNL     1      -4.409   3.459 -25.218  0.00  0.00    +0.238 N 
ATOM      7  H   UNL     1      -5.299   3.288 -25.685  0.00  0.00    +0.204 HD
ATOM      8  C   UNL     1      -4.462   3.259 -26.501  0.00  0.00    +0.131 C 
ATOM      9  C   UNL     1      -3.371   3.276 -27.206  0.00  0.00    +0.051 C 
ATOM     10  C   UNL     1      -2.226   3.492 -26.629  0.00  0.00    +0.011 C 
ATOM     11  C   UNL     1      -2.172   3.692 -25.345  0.00  0.00    +0.055 C 
ATOM     12  C   UNL     1      -3.264   3.676 -24.639  0.00  0.00    +0.071 C 
ENDBRANCH   1   2
BRANCH   1  13
ATOM     13  O   UNL     1      -1.776   3.487 -21.665  0.00  0.00    -0.461 OA
BRANCH  13  14
ATOM     14  C   UNL     1      -1.183   2.330 -21.689  0.00  0.00    +0.339 C 
ATOM     15  O   UNL     1      -1.811   1.270 -21.277  0.00  0.00    -0.245 OA
BRANCH  14  19
ATOM     16  C   UNL     1       2.481   2.043 -22.996  0.00  0.00    +0.120 A 
ATOM     17  C   UNL     1       1.920   1.030 -22.405  0.00  0.00    +0.046 A 
ATOM     18  C   UNL     1       0.699   1.126 -21.969  0.00  0.00    +0.018 A 
ATOM     19  C   UNL     1       0.039   2.235 -22.125  0.00  0.00    +0.059 A 
ATOM     20  C   UNL     1       0.599   3.248 -22.715  0.00  0.00    +0.018 A 
ATOM     21  C   UNL     1       1.819   3.152 -23.151  0.00  0.00    +0.046 A 
BRANCH  16  23
ATOM     22  C   UNL     1       4.465   3.000 -23.459  0.00  0.00    +0.277 C 
ATOM     23  O   UNL     1       3.702   1.948 -23.432  0.00  0.00    -0.495 OA
ENDBRANCH  16  23
ENDBRANCH  14  19
ENDBRANCH  13  14
ENDBRANCH   1  13
TORSDOF 5
ENDMDL
