MODEL 1
REMARK VINA RESULT:    -9.507      0.000      0.000
REMARK INTER + INTRA:          -6.041
REMARK INTER:                  -9.769
REMARK INTRA:                   3.728
REMARK UNBOUND:                 7.634
REMARK  Name = ZINC000002018257
REMARK  13 active torsions:
REMARK  status: ('A' for Active; 'I' for Inactive)
REMARK    1  A    between atoms: C_1  and  O_2
REMARK    2  A    between atoms: O_2  and  C_3
REMARK    3  A    between atoms: C_7  and  O_8
REMARK    4  A    between atoms: O_8  and  C_9
REMARK    5  A    between atoms: C_10  and  O_11
REMARK    6  A    between atoms: O_11  and  C_12
REMARK    7  A    between atoms: C_16  and  O_17
REMARK    8  A    between atoms: O_17  and  C_18
REMARK    9  A    between atoms: C_23  and  N_24
REMARK   10  A    between atoms: N_24  and  C_25
REMARK   11  A    between atoms: N_24  and  C_26
REMARK   12  A    between atoms: C_26  and  C_27
REMARK   13  A    between atoms: C_32  and  O_33
REMARK                            x       y       z     vdW  Elec       q    Type
REMARK                         _______ _______ _______ _____ _____    ______ ____
ROOT
ATOM      1  C   UNL     1       6.195   7.901 -21.596  0.00  0.00    +0.165 A 
ATOM      2  C   UNL     1       4.997   7.808 -22.093  0.00  0.00    +0.054 A 
ATOM      3  C   UNL     1       4.496   6.640 -22.358  0.00  0.00    -0.032 A 
ATOM      4  C   UNL     1       5.187   5.564 -22.127  0.00  0.00    +0.031 A 
ATOM      5  C   UNL     1       4.851   4.326 -22.327  0.00  0.00    -0.005 A 
ATOM      6  C   UNL     1       5.902   3.672 -21.927  0.00  0.00    +0.013 A 
ATOM      7  C   UNL     1       6.101   2.389 -21.909  0.00  0.00    +0.050 A 
ATOM      8  C   UNL     1       5.298   1.437 -22.286  0.00  0.00    +0.167 A 
ATOM      9  C   UNL     1       4.097   1.540 -22.776  0.00  0.00    +0.221 A 
ATOM     10  C   UNL     1       3.402   2.614 -23.008  0.00  0.00    +0.064 A 
ATOM     11  O   UNL     1       3.513   0.416 -23.072  0.00  0.00    -0.284 OA
ATOM     12  C   UNL     1       3.740   3.853 -22.808  0.00  0.00    +0.012 A 
ATOM     13  C   UNL     1       2.689   4.508 -23.207  0.00  0.00    +0.096 C 
ATOM     14  C   UNL     1       2.488   5.791 -23.226  0.00  0.00    +0.064 C 
ATOM     15  C   UNL     1       6.385   5.660 -21.629  0.00  0.00    +0.173 A 
ATOM     16  C   UNL     1       3.294   6.739 -22.848  0.00  0.00    +0.042 C 
ATOM     17  C   UNL     1       6.891   6.827 -21.363  0.00  0.00    +0.204 A 
ENDROOT
BRANCH  13  18
ATOM     18  N   UNL     1       1.706   3.778 -23.648  0.00  0.00    +0.242 N 
ATOM     19  H   UNL     1       1.125   3.220 -24.275  0.00  0.00    +0.204 HD
ATOM     20  C   UNL     1       1.711   3.353 -24.877  0.00  0.00    +0.191 C 
BRANCH  18  21
ATOM     21  C   UNL     1       0.718   3.474 -22.860  0.00  0.00    +0.172 C 
BRANCH  21  22
ATOM     22  C   UNL     1      -0.505   3.546 -23.295  0.00  0.00    +0.038 A 
ATOM     23  C   UNL     1      -1.041   4.704 -23.538  0.00  0.00    +0.012 A 
ATOM     24  C   UNL     1      -2.265   4.775 -23.974  0.00  0.00    +0.001 A 
ATOM     25  C   UNL     1      -2.951   3.686 -24.164  0.00  0.00    +0.004 A 
ATOM     26  C   UNL     1      -2.413   2.529 -23.921  0.00  0.00    +0.046 A 
ATOM     27  C   UNL     1      -1.191   2.458 -23.486  0.00  0.00    +0.125 A 
BRANCH  27  28
ATOM     28  O   UNL     1      -0.654   1.300 -23.242  0.00  0.00    -0.506 OA
ATOM     29  H   UNL     1      -1.199   0.546 -23.129  0.00  0.00    +0.292 HD
ENDBRANCH  27  28
ENDBRANCH  21  22
ENDBRANCH  18  21
ENDBRANCH  13  18
BRANCH   8  30
ATOM     30  O   UNL     1       5.755   0.228 -22.159  0.00  0.00    -0.491 OA
ATOM     31  C   UNL     1       5.810  -0.325 -20.983  0.00  0.00    +0.277 C 
ENDBRANCH   8  30
BRANCH  17  32
ATOM     32  O   UNL     1       8.087   6.921 -20.866  0.00  0.00    -0.488 OA
ATOM     33  C   UNL     1       8.267   6.832 -19.583  0.00  0.00    +0.277 C 
ENDBRANCH  17  32
BRANCH   1  35
ATOM     34  C   UNL     1       5.922  10.045 -20.960  0.00  0.00    +0.277 C 
ATOM     35  O   UNL     1       6.700   9.070 -21.330  0.00  0.00    -0.491 OA
ENDBRANCH   1  35
BRANCH  15  36
ATOM     36  O   UNL     1       7.078   4.584 -21.398  0.00  0.00    -0.491 OA
ATOM     37  C   UNL     1       7.992   4.206 -22.242  0.00  0.00    +0.277 C 
ENDBRANCH  15  36
TORSDOF 8
ENDMDL
MODEL 2
REMARK VINA RESULT:    -8.975      2.036      6.840
REMARK INTER + INTRA:          -5.277
REMARK INTER:                  -9.139
REMARK INTRA:                   3.863
REMARK UNBOUND:                 7.634
REMARK  Name = ZINC000002018257
REMARK  13 active torsions:
REMARK  status: ('A' for Active; 'I' for Inactive)
REMARK    1  A    between atoms: C_1  and  O_2
REMARK    2  A    between atoms: O_2  and  C_3
REMARK    3  A    between atoms: C_7  and  O_8
REMARK    4  A    between atoms: O_8  and  C_9
REMARK    5  A    between atoms: C_10  and  O_11
REMARK    6  A    between atoms: O_11  and  C_12
REMARK    7  A    between atoms: C_16  and  O_17
REMARK    8  A    between atoms: O_17  and  C_18
REMARK    9  A    between atoms: C_23  and  N_24
REMARK   10  A    between atoms: N_24  and  C_25
REMARK   11  A    between atoms: N_24  and  C_26
REMARK   12  A    between atoms: C_26  and  C_27
REMARK   13  A    between atoms: C_32  and  O_33
REMARK                            x       y       z     vdW  Elec       q    Type
REMARK                         _______ _______ _______ _____ _____    ______ ____
ROOT
ATOM      1  C   UNL     1       1.189   4.069 -23.757  0.00  0.00    +0.165 A 
ATOM      2  C   UNL     1       1.502   5.210 -23.216  0.00  0.00    +0.054 A 
ATOM      3  C   UNL     1       2.747   5.488 -22.970  0.00  0.00    -0.032 A 
ATOM      4  C   UNL     1       3.679   4.632 -23.263  0.00  0.00    +0.031 A 
ATOM      5  C   UNL     1       4.962   4.738 -23.091  0.00  0.00    -0.005 A 
ATOM      6  C   UNL     1       5.411   3.608 -23.553  0.00  0.00    +0.013 A 
ATOM      7  C   UNL     1       6.638   3.190 -23.621  0.00  0.00    +0.050 A 
ATOM      8  C   UNL     1       7.725   3.797 -23.244  0.00  0.00    +0.167 A 
ATOM      9  C   UNL     1       7.847   4.975 -22.704  0.00  0.00    +0.221 A 
ATOM     10  C   UNL     1       6.917   5.835 -22.410  0.00  0.00    +0.064 A 
ATOM     11  O   UNL     1       9.062   5.341 -22.422  0.00  0.00    -0.284 OA
ATOM     12  C   UNL     1       5.634   5.727 -22.583  0.00  0.00    +0.012 A 
ATOM     13  C   UNL     1       5.183   6.857 -22.121  0.00  0.00    +0.096 C 
ATOM     14  C   UNL     1       3.956   7.277 -22.052  0.00  0.00    +0.064 C 
ATOM     15  C   UNL     1       3.362   3.492 -23.805  0.00  0.00    +0.173 A 
ATOM     16  C   UNL     1       2.873   6.666 -22.431  0.00  0.00    +0.042 C 
ATOM     17  C   UNL     1       2.118   3.209 -24.052  0.00  0.00    +0.204 A 
ENDROOT
BRANCH  13  18
ATOM     18  N   UNL     1       6.085   7.678 -21.665  0.00  0.00    +0.242 N 
ATOM     19  H   UNL     1       6.793   8.092 -21.058  0.00  0.00    +0.204 HD
ATOM     20  C   UNL     1       6.671   7.435 -20.531  0.00  0.00    +0.191 C 
BRANCH  18  21
ATOM     21  C   UNL     1       6.399   8.740 -22.345  0.00  0.00    +0.172 C 
BRANCH  21  22
ATOM     22  C   UNL     1       5.741   9.846 -22.161  0.00  0.00    +0.038 A 
ATOM     23  C   UNL     1       5.461  10.243 -20.956  0.00  0.00    +0.012 A 
ATOM     24  C   UNL     1       4.803  11.350 -20.772  0.00  0.00    +0.001 A 
ATOM     25  C   UNL     1       4.426  12.059 -21.795  0.00  0.00    +0.004 A 
ATOM     26  C   UNL     1       4.707  11.662 -23.000  0.00  0.00    +0.046 A 
ATOM     27  C   UNL     1       5.365  10.556 -23.184  0.00  0.00    +0.125 A 
BRANCH  27  28
ATOM     28  O   UNL     1       5.645  10.159 -24.389  0.00  0.00    -0.506 OA
ATOM     29  H   UNL     1       5.657  10.777 -25.094  0.00  0.00    +0.292 HD
ENDBRANCH  27  28
ENDBRANCH  21  22
ENDBRANCH  18  21
ENDBRANCH  13  18
BRANCH   8  30
ATOM     30  O   UNL     1       8.832   3.143 -23.429  0.00  0.00    -0.491 OA
ATOM     31  C   UNL     1       9.062   2.568 -24.572  0.00  0.00    +0.277 C 
ENDBRANCH   8  30
BRANCH  17  32
ATOM     32  O   UNL     1       1.803   2.070 -24.593  0.00  0.00    -0.488 OA
ATOM     33  C   UNL     1       1.933   1.901 -25.874  0.00  0.00    +0.277 C 
ENDBRANCH  17  32
BRANCH   1  35
ATOM     34  C   UNL     1      -1.003   4.474 -23.433  0.00  0.00    +0.277 C 
ATOM     35  O   UNL     1      -0.057   3.789 -24.004  0.00  0.00    -0.491 OA
ENDBRANCH   1  35
BRANCH  15  36
ATOM     36  O   UNL     1       4.294   2.633 -24.099  0.00  0.00    -0.491 OA
ATOM     37  C   UNL     1       4.554   1.653 -23.285  0.00  0.00    +0.277 C 
ENDBRANCH  15  36
TORSDOF 8
ENDMDL
MODEL 3
REMARK VINA RESULT:    -8.975      1.723      7.181
REMARK INTER + INTRA:          -5.276
REMARK INTER:                 -10.805
REMARK INTRA:                   5.529
REMARK UNBOUND:                 7.634
REMARK  Name = ZINC000002018257
REMARK  13 active torsions:
REMARK  status: ('A' for Active; 'I' for Inactive)
REMARK    1  A    between atoms: C_1  and  O_2
REMARK    2  A    between atoms: O_2  and  C_3
REMARK    3  A    between atoms: C_7  and  O_8
REMARK    4  A    between atoms: O_8  and  C_9
REMARK    5  A    between atoms: C_10  and  O_11
REMARK    6  A    between atoms: O_11  and  C_12
REMARK    7  A    between atoms: C_16  and  O_17
REMARK    8  A    between atoms: O_17  and  C_18
REMARK    9  A    between atoms: C_23  and  N_24
REMARK   10  A    between atoms: N_24  and  C_25
REMARK   11  A    between atoms: N_24  and  C_26
REMARK   12  A    between atoms: C_26  and  C_27
REMARK   13  A    between atoms: C_32  and  O_33
REMARK                            x       y       z     vdW  Elec       q    Type
REMARK                         _______ _______ _______ _____ _____    ______ ____
ROOT
ATOM      1  C   UNL     1      -1.420   4.189 -23.336  0.00  0.00    +0.165 A 
ATOM      2  C   UNL     1      -0.459   5.039 -23.548  0.00  0.00    +0.054 A 
ATOM      3  C   UNL     1       0.773   4.691 -23.323  0.00  0.00    -0.032 A 
ATOM      4  C   UNL     1       1.046   3.497 -22.888  0.00  0.00    +0.031 A 
ATOM      5  C   UNL     1       2.204   2.980 -22.612  0.00  0.00    -0.005 A 
ATOM      6  C   UNL     1       1.899   1.776 -22.222  0.00  0.00    +0.013 A 
ATOM      7  C   UNL     1       2.691   0.827 -21.827  0.00  0.00    +0.050 A 
ATOM      8  C   UNL     1       3.988   0.841 -21.723  0.00  0.00    +0.167 A 
ATOM      9  C   UNL     1       4.809   1.815 -21.989  0.00  0.00    +0.221 A 
ATOM     10  C   UNL     1       4.540   3.010 -22.425  0.00  0.00    +0.064 A 
ATOM     11  O   UNL     1       6.069   1.557 -21.794  0.00  0.00    -0.284 OA
ATOM     12  C   UNL     1       3.380   3.526 -22.701  0.00  0.00    +0.012 A 
ATOM     13  C   UNL     1       3.683   4.730 -23.091  0.00  0.00    +0.096 C 
ATOM     14  C   UNL     1       2.892   5.681 -23.486  0.00  0.00    +0.064 C 
ATOM     15  C   UNL     1       0.081   2.649 -22.677  0.00  0.00    +0.173 A 
ATOM     16  C   UNL     1       1.597   5.662 -23.589  0.00  0.00    +0.042 C 
ATOM     17  C   UNL     1      -1.152   2.994 -22.900  0.00  0.00    +0.204 A 
ENDROOT
BRANCH  13  18
ATOM     18  N   UNL     1       4.952   5.020 -23.084  0.00  0.00    +0.242 N 
ATOM     19  H   UNL     1       5.946   5.003 -23.314  0.00  0.00    +0.204 HD
ATOM     20  C   UNL     1       5.769   4.386 -23.872  0.00  0.00    +0.191 C 
BRANCH  18  21
ATOM     21  C   UNL     1       5.403   5.944 -22.288  0.00  0.00    +0.172 C 
BRANCH  21  22
ATOM     22  C   UNL     1       6.605   5.851 -21.801  0.00  0.00    +0.038 A 
ATOM     23  C   UNL     1       6.853   5.015 -20.838  0.00  0.00    +0.012 A 
ATOM     24  C   UNL     1       8.056   4.922 -20.351  0.00  0.00    +0.001 A 
ATOM     25  C   UNL     1       9.008   5.667 -20.829  0.00  0.00    +0.004 A 
ATOM     26  C   UNL     1       8.759   6.503 -21.791  0.00  0.00    +0.046 A 
ATOM     27  C   UNL     1       7.557   6.596 -22.278  0.00  0.00    +0.125 A 
BRANCH  27  28
ATOM     28  O   UNL     1       7.309   7.432 -23.241  0.00  0.00    -0.506 OA
ATOM     29  H   UNL     1       8.009   7.923 -23.627  0.00  0.00    +0.292 HD
ENDBRANCH  27  28
ENDBRANCH  21  22
ENDBRANCH  18  21
ENDBRANCH  13  18
BRANCH   8  30
ATOM     30  O   UNL     1       4.534  -0.258 -21.297  0.00  0.00    -0.491 OA
ATOM     31  C   UNL     1       5.206  -0.260 -20.184  0.00  0.00    +0.277 C 
ENDBRANCH   8  30
BRANCH  17  32
ATOM     32  O   UNL     1      -2.114   2.147 -22.689  0.00  0.00    -0.488 OA
ATOM     33  C   UNL     1      -2.905   2.302 -21.671  0.00  0.00    +0.277 C 
ENDBRANCH  17  32
BRANCH   1  35
ATOM     34  C   UNL     1      -3.124   4.520 -24.772  0.00  0.00    +0.277 C 
ATOM     35  O   UNL     1      -2.654   4.536 -23.560  0.00  0.00    -0.491 OA
ENDBRANCH   1  35
BRANCH  15  36
ATOM     36  O   UNL     1       0.353   1.454 -22.241  0.00  0.00    -0.491 OA
ATOM     37  C   UNL     1       0.316   1.204 -20.966  0.00  0.00    +0.277 C 
ENDBRANCH  15  36
TORSDOF 8
ENDMDL
MODEL 4
REMARK VINA RESULT:    -8.314      2.403      7.968
REMARK INTER + INTRA:          -4.325
REMARK INTER:                  -8.205
REMARK INTRA:                   3.880
REMARK UNBOUND:                 7.634
REMARK  Name = ZINC000002018257
REMARK  13 active torsions:
REMARK  status: ('A' for Active; 'I' for Inactive)
REMARK    1  A    between atoms: C_1  and  O_2
REMARK    2  A    between atoms: O_2  and  C_3
REMARK    3  A    between atoms: C_7  and  O_8
REMARK    4  A    between atoms: O_8  and  C_9
REMARK    5  A    between atoms: C_10  and  O_11
REMARK    6  A    between atoms: O_11  and  C_12
REMARK    7  A    between atoms: C_16  and  O_17
REMARK    8  A    between atoms: O_17  and  C_18
REMARK    9  A    between atoms: C_23  and  N_24
REMARK   10  A    between atoms: N_24  and  C_25
REMARK   11  A    between atoms: N_24  and  C_26
REMARK   12  A    between atoms: C_26  and  C_27
REMARK   13  A    between atoms: C_32  and  O_33
REMARK                            x       y       z     vdW  Elec       q    Type
REMARK                         _______ _______ _______ _____ _____    ______ ____
ROOT
ATOM      1  C   UNL     1       3.107   1.803 -24.122  0.00  0.00    +0.165 A 
ATOM      2  C   UNL     1       4.333   1.744 -23.692  0.00  0.00    +0.054 A 
ATOM      3  C   UNL     1       4.892   2.802 -23.185  0.00  0.00    -0.032 A 
ATOM      4  C   UNL     1       4.230   3.917 -23.107  0.00  0.00    +0.031 A 
ATOM      5  C   UNL     1       4.623   5.062 -22.636  0.00  0.00    -0.005 A 
ATOM      6  C   UNL     1       3.577   5.818 -22.802  0.00  0.00    +0.013 A 
ATOM      7  C   UNL     1       3.426   7.070 -22.498  0.00  0.00    +0.050 A 
ATOM      8  C   UNL     1       4.283   7.884 -21.953  0.00  0.00    +0.167 A 
ATOM      9  C   UNL     1       5.504   7.637 -21.577  0.00  0.00    +0.221 A 
ATOM     10  C   UNL     1       6.170   6.523 -21.654  0.00  0.00    +0.064 A 
ATOM     11  O   UNL     1       6.145   8.642 -21.056  0.00  0.00    -0.284 OA
ATOM     12  C   UNL     1       5.775   5.378 -22.125  0.00  0.00    +0.012 A 
ATOM     13  C   UNL     1       6.820   4.621 -21.960  0.00  0.00    +0.096 C 
ATOM     14  C   UNL     1       6.974   3.367 -22.263  0.00  0.00    +0.064 C 
ATOM     15  C   UNL     1       3.004   3.973 -23.539  0.00  0.00    +0.173 A 
ATOM     16  C   UNL     1       6.114   2.559 -22.809  0.00  0.00    +0.042 C 
ATOM     17  C   UNL     1       2.441   2.917 -24.046  0.00  0.00    +0.204 A 
ENDROOT
BRANCH  13  18
ATOM     18  N   UNL     1       7.853   5.199 -21.418  0.00  0.00    +0.242 N 
ATOM     19  H   UNL     1       8.450   5.656 -20.728  0.00  0.00    +0.204 HD
ATOM     20  C   UNL     1       7.805   5.586 -20.178  0.00  0.00    +0.191 C 
BRANCH  18  21
ATOM     21  C   UNL     1       8.933   5.389 -22.117  0.00  0.00    +0.172 C 
BRANCH  21  22
ATOM     22  C   UNL     1       8.870   6.031 -23.246  0.00  0.00    +0.038 A 
ATOM     23  C   UNL     1       8.743   5.375 -24.360  0.00  0.00    +0.012 A 
ATOM     24  C   UNL     1       8.681   6.017 -25.490  0.00  0.00    +0.001 A 
ATOM     25  C   UNL     1       8.746   7.316 -25.502  0.00  0.00    +0.004 A 
ATOM     26  C   UNL     1       8.873   7.971 -24.388  0.00  0.00    +0.046 A 
ATOM     27  C   UNL     1       8.935   7.329 -23.259  0.00  0.00    +0.125 A 
BRANCH  27  28
ATOM     28  O   UNL     1       9.062   7.985 -22.145  0.00  0.00    -0.506 OA
ATOM     29  H   UNL     1       8.417   8.619 -21.898  0.00  0.00    +0.292 HD
ENDBRANCH  27  28
ENDBRANCH  21  22
ENDBRANCH  18  21
ENDBRANCH  13  18
BRANCH   8  30
ATOM     30  O   UNL     1       3.865   9.098 -21.757  0.00  0.00    -0.491 OA
ATOM     31  C   UNL     1       4.138  10.026 -22.626  0.00  0.00    +0.277 C 
ENDBRANCH   8  30
BRANCH  17  32
ATOM     32  O   UNL     1       1.217   2.974 -24.477  0.00  0.00    -0.488 OA
ATOM     33  C   UNL     1       0.974   3.350 -25.696  0.00  0.00    +0.277 C 
ENDBRANCH  17  32
BRANCH   1  35
ATOM     34  C   UNL     1       2.996   0.240 -25.740  0.00  0.00    +0.277 C 
ATOM     35  O   UNL     1       2.546   0.745 -24.630  0.00  0.00    -0.491 OA
ENDBRANCH   1  35
BRANCH  15  36
ATOM     36  O   UNL     1       2.340   5.089 -23.461  0.00  0.00    -0.491 OA
ATOM     37  C   UNL     1       1.217   5.133 -22.808  0.00  0.00    +0.277 C 
ENDBRANCH  15  36
TORSDOF 8
ENDMDL
MODEL 5
REMARK VINA RESULT:    -7.698      2.405      6.757
REMARK INTER + INTRA:          -3.440
REMARK INTER:                  -7.625
REMARK INTRA:                   4.186
REMARK UNBOUND:                 7.634
REMARK  Name = ZINC000002018257
REMARK  13 active torsions:
REMARK  status: ('A' for Active; 'I' for Inactive)
REMARK    1  A    between atoms: C_1  and  O_2
REMARK    2  A    between atoms: O_2  and  C_3
REMARK    3  A    between atoms: C_7  and  O_8
REMARK    4  A    between atoms: O_8  and  C_9
REMARK    5  A    between atoms: C_10  and  O_11
REMARK    6  A    between atoms: O_11  and  C_12
REMARK    7  A    between atoms: C_16  and  O_17
REMARK    8  A    between atoms: O_17  and  C_18
REMARK    9  A    between atoms: C_23  and  N_24
REMARK   10  A    between atoms: N_24  and  C_25
REMARK   11  A    between atoms: N_24  and  C_26
REMARK   12  A    between atoms: C_26  and  C_27
REMARK   13  A    between atoms: C_32  and  O_33
REMARK                            x       y       z     vdW  Elec       q    Type
REMARK                         _______ _______ _______ _____ _____    ______ ____
ROOT
ATOM      1  C   UNL     1       2.617   3.051 -23.961  0.00  0.00    +0.165 A 
ATOM      2  C   UNL     1       2.289   4.299 -23.800  0.00  0.00    +0.054 A 
ATOM      3  C   UNL     1       3.106   5.109 -23.196  0.00  0.00    -0.032 A 
ATOM      4  C   UNL     1       4.249   4.676 -22.754  0.00  0.00    +0.031 A 
ATOM      5  C   UNL     1       5.181   5.334 -22.134  0.00  0.00    -0.005 A 
ATOM      6  C   UNL     1       6.089   4.426 -21.927  0.00  0.00    +0.013 A 
ATOM      7  C   UNL     1       7.239   4.550 -21.339  0.00  0.00    +0.050 A 
ATOM      8  C   UNL     1       7.771   5.612 -20.808  0.00  0.00    +0.167 A 
ATOM      9  C   UNL     1       7.278   6.813 -20.739  0.00  0.00    +0.221 A 
ATOM     10  C   UNL     1       6.135   7.251 -21.181  0.00  0.00    +0.064 A 
ATOM     11  O   UNL     1       8.029   7.696 -20.149  0.00  0.00    -0.284 OA
ATOM     12  C   UNL     1       5.204   6.591 -21.801  0.00  0.00    +0.012 A 
ATOM     13  C   UNL     1       4.295   7.498 -22.008  0.00  0.00    +0.096 C 
ATOM     14  C   UNL     1       3.143   7.377 -22.597  0.00  0.00    +0.064 C 
ATOM     15  C   UNL     1       4.574   3.427 -22.917  0.00  0.00    +0.173 A 
ATOM     16  C   UNL     1       2.616   6.313 -23.125  0.00  0.00    +0.042 C 
ATOM     17  C   UNL     1       3.759   2.613 -23.520  0.00  0.00    +0.204 A 
ENDROOT
BRANCH  13  18
ATOM     18  N   UNL     1       4.578   8.689 -21.566  0.00  0.00    +0.242 N 
ATOM     19  H   UNL     1       4.633   9.500 -20.949  0.00  0.00    +0.204 HD
ATOM     20  C   UNL     1       4.202   9.046 -20.374  0.00  0.00    +0.191 C 
BRANCH  18  21
ATOM     21  C   UNL     1       5.237   9.521 -22.316  0.00  0.00    +0.172 C 
BRANCH  21  22
ATOM     22  C   UNL     1       4.614  10.503 -22.898  0.00  0.00    +0.038 A 
ATOM     23  C   UNL     1       3.648  11.115 -22.283  0.00  0.00    +0.012 A 
ATOM     24  C   UNL     1       3.024  12.098 -22.865  0.00  0.00    +0.001 A 
ATOM     25  C   UNL     1       3.370  12.465 -24.064  0.00  0.00    +0.004 A 
ATOM     26  C   UNL     1       4.336  11.851 -24.679  0.00  0.00    +0.046 A 
ATOM     27  C   UNL     1       4.959  10.870 -24.097  0.00  0.00    +0.125 A 
BRANCH  27  28
ATOM     28  O   UNL     1       5.924  10.257 -24.713  0.00  0.00    -0.506 OA
ATOM     29  H   UNL     1       5.922   9.321 -24.773  0.00  0.00    +0.292 HD
ENDBRANCH  27  28
ENDBRANCH  21  22
ENDBRANCH  18  21
ENDBRANCH  13  18
BRANCH   8  30
ATOM     30  O   UNL     1       8.947   5.452 -20.280  0.00  0.00    -0.491 OA
ATOM     31  C   UNL     1       9.062   5.253 -19.000  0.00  0.00    +0.277 C 
ENDBRANCH   8  30
BRANCH  17  32
ATOM     32  O   UNL     1       4.085   1.366 -23.682  0.00  0.00    -0.488 OA
ATOM     33  C   UNL     1       3.634   0.465 -22.862  0.00  0.00    +0.277 C 
ENDBRANCH  17  32
BRANCH   1  35
ATOM     34  C   UNL     1       1.623   2.331 -25.849  0.00  0.00    +0.277 C 
ATOM     35  O   UNL     1       1.800   2.238 -24.565  0.00  0.00    -0.491 OA
ENDBRANCH   1  35
BRANCH  15  36
ATOM     36  O   UNL     1       5.717   2.992 -22.475  0.00  0.00    -0.491 OA
ATOM     37  C   UNL     1       6.744   2.940 -23.271  0.00  0.00    +0.277 C 
ENDBRANCH  15  36
TORSDOF 8
ENDMDL
MODEL 6
REMARK VINA RESULT:    -7.213      7.062     10.233
REMARK INTER + INTRA:          -2.742
REMARK INTER:                  -5.401
REMARK INTRA:                   2.659
REMARK UNBOUND:                 7.634
REMARK  Name = ZINC000002018257
REMARK  13 active torsions:
REMARK  status: ('A' for Active; 'I' for Inactive)
REMARK    1  A    between atoms: C_1  and  O_2
REMARK    2  A    between atoms: O_2  and  C_3
REMARK    3  A    between atoms: C_7  and  O_8
REMARK    4  A    between atoms: O_8  and  C_9
REMARK    5  A    between atoms: C_10  and  O_11
REMARK    6  A    between atoms: O_11  and  C_12
REMARK    7  A    between atoms: C_16  and  O_17
REMARK    8  A    between atoms: O_17  and  C_18
REMARK    9  A    between atoms: C_23  and  N_24
REMARK   10  A    between atoms: N_24  and  C_25
REMARK   11  A    between atoms: N_24  and  C_26
REMARK   12  A    between atoms: C_26  and  C_27
REMARK   13  A    between atoms: C_32  and  O_33
REMARK                            x       y       z     vdW  Elec       q    Type
REMARK                         _______ _______ _______ _____ _____    ______ ____
ROOT
ATOM      1  C   UNL     1      -0.668  12.783 -25.947  0.00  0.00    +0.165 A 
ATOM      2  C   UNL     1       0.242  13.160 -25.097  0.00  0.00    +0.054 A 
ATOM      3  C   UNL     1       1.480  12.809 -25.279  0.00  0.00    -0.032 A 
ATOM      4  C   UNL     1       1.810  12.084 -26.305  0.00  0.00    +0.031 A 
ATOM      5  C   UNL     1       2.984  11.644 -26.643  0.00  0.00    -0.005 A 
ATOM      6  C   UNL     1       2.743  10.984 -27.738  0.00  0.00    +0.013 A 
ATOM      7  C   UNL     1       3.575  10.338 -28.495  0.00  0.00    +0.050 A 
ATOM      8  C   UNL     1       4.860  10.189 -28.349  0.00  0.00    +0.167 A 
ATOM      9  C   UNL     1       5.624  10.655 -27.405  0.00  0.00    +0.221 A 
ATOM     10  C   UNL     1       5.297  11.380 -26.376  0.00  0.00    +0.064 A 
ATOM     11  O   UNL     1       6.886  10.353 -27.503  0.00  0.00    -0.284 OA
ATOM     12  C   UNL     1       4.122  11.819 -26.040  0.00  0.00    +0.012 A 
ATOM     13  C   UNL     1       4.362  12.481 -24.945  0.00  0.00    +0.096 C 
ATOM     14  C   UNL     1       3.530  13.128 -24.186  0.00  0.00    +0.064 C 
ATOM     15  C   UNL     1       0.897  11.709 -27.153  0.00  0.00    +0.173 A 
ATOM     16  C   UNL     1       2.248  13.273 -24.336  0.00  0.00    +0.042 C 
ATOM     17  C   UNL     1      -0.342  12.058 -26.975  0.00  0.00    +0.204 A 
ENDROOT
BRANCH  13  18
ATOM     18  N   UNL     1       5.605  12.496 -24.559  0.00  0.00    +0.242 N 
ATOM     19  H   UNL     1       6.568  12.803 -24.422  0.00  0.00    +0.204 HD
ATOM     20  C   UNL     1       6.370  13.500 -24.869  0.00  0.00    +0.191 C 
BRANCH  18  21
ATOM     21  C   UNL     1       6.081  11.506 -23.863  0.00  0.00    +0.172 C 
BRANCH  21  22
ATOM     22  C   UNL     1       5.460  11.108 -22.792  0.00  0.00    +0.038 A 
ATOM     23  C   UNL     1       4.696  10.058 -22.837  0.00  0.00    +0.012 A 
ATOM     24  C   UNL     1       4.075   9.660 -21.766  0.00  0.00    +0.001 A 
ATOM     25  C   UNL     1       4.219  10.314 -20.651  0.00  0.00    +0.004 A 
ATOM     26  C   UNL     1       4.983  11.363 -20.607  0.00  0.00    +0.046 A 
ATOM     27  C   UNL     1       5.604  11.762 -21.677  0.00  0.00    +0.125 A 
BRANCH  27  28
ATOM     28  O   UNL     1       6.368  12.811 -21.633  0.00  0.00    -0.506 OA
ATOM     29  H   UNL     1       6.381  13.349 -20.865  0.00  0.00    +0.292 HD
ENDBRANCH  27  28
ENDBRANCH  21  22
ENDBRANCH  18  21
ENDBRANCH  13  18
BRANCH   8  30
ATOM     30  O   UNL     1       5.456   9.486 -29.264  0.00  0.00    -0.491 OA
ATOM     31  C   UNL     1       5.011   8.302 -29.566  0.00  0.00    +0.277 C 
ENDBRANCH   8  30
BRANCH  17  32
ATOM     32  O   UNL     1      -1.253  11.683 -27.822  0.00  0.00    -0.488 OA
ATOM     33  C   UNL     1      -1.893  10.567 -27.637  0.00  0.00    +0.277 C 
ENDBRANCH  17  32
BRANCH   1  35
ATOM     34  C   UNL     1      -2.331  13.442 -24.576  0.00  0.00    +0.277 C 
ATOM     35  O   UNL     1      -1.908  13.133 -25.767  0.00  0.00    -0.491 OA
ENDBRANCH   1  35
BRANCH  15  36
ATOM     36  O   UNL     1       1.226  10.983 -28.181  0.00  0.00    -0.491 OA
ATOM     37  C   UNL     1       1.252  11.513 -29.368  0.00  0.00    +0.277 C 
ENDBRANCH  15  36
TORSDOF 8
ENDMDL
MODEL 7
REMARK VINA RESULT:    -7.006      5.946      9.575
REMARK INTER + INTRA:          -2.445
REMARK INTER:                  -5.609
REMARK INTRA:                   3.164
REMARK UNBOUND:                 7.634
REMARK  Name = ZINC000002018257
REMARK  13 active torsions:
REMARK  status: ('A' for Active; 'I' for Inactive)
REMARK    1  A    between atoms: C_1  and  O_2
REMARK    2  A    between atoms: O_2  and  C_3
REMARK    3  A    between atoms: C_7  and  O_8
REMARK    4  A    between atoms: O_8  and  C_9
REMARK    5  A    between atoms: C_10  and  O_11
REMARK    6  A    between atoms: O_11  and  C_12
REMARK    7  A    between atoms: C_16  and  O_17
REMARK    8  A    between atoms: O_17  and  C_18
REMARK    9  A    between atoms: C_23  and  N_24
REMARK   10  A    between atoms: N_24  and  C_25
REMARK   11  A    between atoms: N_24  and  C_26
REMARK   12  A    between atoms: C_26  and  C_27
REMARK   13  A    between atoms: C_32  and  O_33
REMARK                            x       y       z     vdW  Elec       q    Type
REMARK                         _______ _______ _______ _____ _____    ______ ____
ROOT
ATOM      1  C   UNL     1       0.295  13.004 -25.430  0.00  0.00    +0.165 A 
ATOM      2  C   UNL     1       0.736  13.125 -24.213  0.00  0.00    +0.054 A 
ATOM      3  C   UNL     1       1.958  12.786 -23.931  0.00  0.00    -0.032 A 
ATOM      4  C   UNL     1       2.740  12.328 -24.861  0.00  0.00    +0.031 A 
ATOM      5  C   UNL     1       3.977  11.944 -24.765  0.00  0.00    -0.005 A 
ATOM      6  C   UNL     1       4.265  11.585 -25.982  0.00  0.00    +0.013 A 
ATOM      7  C   UNL     1       5.384  11.118 -26.445  0.00  0.00    +0.050 A 
ATOM      8  C   UNL     1       6.496  10.892 -25.810  0.00  0.00    +0.167 A 
ATOM      9  C   UNL     1       6.758  11.080 -24.550  0.00  0.00    +0.221 A 
ATOM     10  C   UNL     1       5.978  11.539 -23.615  0.00  0.00    +0.064 A 
ATOM     11  O   UNL     1       7.964  10.767 -24.174  0.00  0.00    -0.284 OA
ATOM     12  C   UNL     1       4.741  11.922 -23.714  0.00  0.00    +0.012 A 
ATOM     13  C   UNL     1       4.451  12.281 -22.497  0.00  0.00    +0.096 C 
ATOM     14  C   UNL     1       3.333  12.749 -22.031  0.00  0.00    +0.064 C 
ATOM     15  C   UNL     1       2.297  12.208 -26.079  0.00  0.00    +0.173 A 
ATOM     16  C   UNL     1       2.224  12.973 -22.671  0.00  0.00    +0.042 C 
ATOM     17  C   UNL     1       1.074  12.546 -26.365  0.00  0.00    +0.204 A 
ENDROOT
BRANCH  13  18
ATOM     18  N   UNL     1       5.413  12.155 -21.630  0.00  0.00    +0.242 N 
ATOM     19  H   UNL     1       6.289  12.315 -21.132  0.00  0.00    +0.204 HD
ATOM     20  C   UNL     1       6.445  12.944 -21.683  0.00  0.00    +0.191 C 
BRANCH  18  21
ATOM     21  C   UNL     1       5.342  11.240 -20.709  0.00  0.00    +0.172 C 
BRANCH  21  22
ATOM     22  C   UNL     1       5.365   9.983 -21.041  0.00  0.00    +0.038 A 
ATOM     23  C   UNL     1       4.251   9.336 -21.214  0.00  0.00    +0.012 A 
ATOM     24  C   UNL     1       4.274   8.079 -21.546  0.00  0.00    +0.001 A 
ATOM     25  C   UNL     1       5.412   7.470 -21.703  0.00  0.00    +0.004 A 
ATOM     26  C   UNL     1       6.525   8.117 -21.530  0.00  0.00    +0.046 A 
ATOM     27  C   UNL     1       6.502   9.374 -21.198  0.00  0.00    +0.125 A 
BRANCH  27  28
ATOM     28  O   UNL     1       7.616  10.020 -21.025  0.00  0.00    -0.506 OA
ATOM     29  H   UNL     1       7.840  10.729 -21.596  0.00  0.00    +0.292 HD
ENDBRANCH  27  28
ENDBRANCH  21  22
ENDBRANCH  18  21
ENDBRANCH  13  18
BRANCH   8  30
ATOM     30  O   UNL     1       7.471  10.418 -26.526  0.00  0.00    -0.491 OA
ATOM     31  C   UNL     1       7.225   9.552 -27.464  0.00  0.00    +0.277 C 
ENDBRANCH   8  30
BRANCH  17  32
ATOM     32  O   UNL     1       0.632  12.427 -27.581  0.00  0.00    -0.488 OA
ATOM     33  C   UNL     1       0.040  11.332 -27.952  0.00  0.00    +0.277 C 
ENDBRANCH  17  32
BRANCH   1  35
ATOM     34  C   UNL     1      -1.870  13.180 -24.832  0.00  0.00    +0.277 C 
ATOM     35  O   UNL     1      -0.929  13.343 -25.715  0.00  0.00    -0.491 OA
ENDBRANCH   1  35
BRANCH  15  36
ATOM     36  O   UNL     1       3.078  11.750 -27.012  0.00  0.00    -0.491 OA
ATOM     37  C   UNL     1       3.563  12.557 -27.908  0.00  0.00    +0.277 C 
ENDBRANCH  15  36
TORSDOF 8
ENDMDL
