MODEL 1
REMARK VINA RESULT:   -10.971      0.000      0.000
REMARK INTER + INTRA:         -12.081
REMARK INTER:                 -11.964
REMARK INTRA:                  -0.117
REMARK UNBOUND:                -0.147
REMARK  Name = ZINC000096316347
REMARK  3 active torsions:
REMARK  status: ('A' for Active; 'I' for Inactive)
REMARK    1  A    between atoms: C_1  and  O_2
REMARK    2  A    between atoms: O_2  and  C_3
REMARK    3  A    between atoms: C_11  and  O_12
REMARK                            x       y       z     vdW  Elec       q    Type
REMARK                         _______ _______ _______ _____ _____    ______ ____
ROOT
ATOM      1  C   UNL     1       0.856   2.663 -23.934  0.00  0.00    +0.162 A 
ATOM      2  C   UNL     1       1.002   2.193 -22.768  0.00  0.00    +0.050 A 
ATOM      3  C   UNL     1       0.020   2.084 -22.002  0.00  0.00    +0.008 A 
ATOM      4  C   UNL     1      -1.115   2.442 -22.391  0.00  0.00    -0.038 A 
ATOM      5  C   UNL     1      -1.283   2.913 -23.546  0.00  0.00    +0.012 A 
ATOM      6  C   UNL     1      -2.418   3.269 -23.928  0.00  0.00    +0.049 C 
ATOM      7  C   UNL     1      -3.659   3.708 -24.475  0.00  0.00    +0.035 C 
ATOM      8  C   UNL     1      -4.786   3.597 -23.634  0.00  0.00    +0.109 C 
ATOM      9  N   UNL     1      -4.585   3.068 -22.341  0.00  0.00    -0.300 N 
ATOM     10  C   UNL     1      -5.533   2.931 -21.519  0.00  0.00    +0.328 C 
ATOM     11  O   UNL     1      -6.701   3.266 -21.829  0.00  0.00    -0.279 OA
ATOM     12  C   UNL     1      -3.255   2.691 -22.000  0.00  0.00    +0.088 C 
ATOM     13  C   UNL     1      -3.402   3.161 -23.164  0.00  0.00    +0.046 C 
ATOM     14  C   UNL     1      -4.551   3.523 -23.553  0.00  0.00    -0.022 C 
ATOM     15  C   UNL     1      -4.701   3.988 -24.704  0.00  0.00    +0.004 C 
ATOM     16  C   UNL     1      -3.713   4.102 -25.485  0.00  0.00    +0.178 C 
ATOM     17  C   UNL     1      -2.579   3.743 -25.096  0.00  0.00    +0.217 C 
ATOM     18  O   UNL     1      -1.113   3.602 -25.439  0.00  0.00    -0.481 OA
ATOM     19  C   UNL     1      -2.120   2.333 -21.613  0.00  0.00    +0.058 C 
ATOM     20  C   UNL     1      -0.294   3.025 -24.323  0.00  0.00    +0.167 A 
ENDROOT
BRANCH   1  22
ATOM     21  C   UNL     1       2.700   1.862 -24.745  0.00  0.00    +0.277 C 
ATOM     22  O   UNL     1       1.841   2.771 -24.697  0.00  0.00    -0.491 OA
ENDBRANCH   1  22
BRANCH  16  23
ATOM     23  O   UNL     1      -3.869   4.568 -26.634  0.00  0.00    -0.384 OA
ATOM     24  H   UNL     1      -4.384   3.943 -27.169  0.00  0.00    +0.210 HD
ENDBRANCH  16  23
TORSDOF 2
ENDMDL
MODEL 2
REMARK VINA RESULT:   -10.657      1.113      1.456
REMARK INTER + INTRA:         -11.739
REMARK INTER:                 -11.625
REMARK INTRA:                  -0.114
REMARK UNBOUND:                -0.147
REMARK  Name = ZINC000096316347
REMARK  3 active torsions:
REMARK  status: ('A' for Active; 'I' for Inactive)
REMARK    1  A    between atoms: C_1  and  O_2
REMARK    2  A    between atoms: O_2  and  C_3
REMARK    3  A    between atoms: C_11  and  O_12
REMARK                            x       y       z     vdW  Elec       q    Type
REMARK                         _______ _______ _______ _____ _____    ______ ____
ROOT
ATOM      1  C   UNL     1       1.729   1.798 -22.678  0.00  0.00    +0.162 A 
ATOM      2  C   UNL     1       1.545   1.522 -21.456  0.00  0.00    +0.050 A 
ATOM      3  C   UNL     1       0.413   1.650 -20.941  0.00  0.00    +0.008 A 
ATOM      4  C   UNL     1      -0.545   2.053 -21.639  0.00  0.00    -0.038 A 
ATOM      5  C   UNL     1      -0.386   2.334 -22.856  0.00  0.00    +0.012 A 
ATOM      6  C   UNL     1      -1.346   2.736 -23.547  0.00  0.00    +0.049 C 
ATOM      7  C   UNL     1      -2.361   3.202 -24.433  0.00  0.00    +0.035 C 
ATOM      8  C   UNL     1      -3.649   3.355 -23.881  0.00  0.00    +0.109 C 
ATOM      9  N   UNL     1      -3.816   3.038 -22.516  0.00  0.00    -0.300 N 
ATOM     10  C   UNL     1      -4.932   3.145 -21.936  0.00  0.00    +0.328 C 
ATOM     11  O   UNL     1      -5.943   3.542 -22.562  0.00  0.00    -0.279 OA
ATOM     12  C   UNL     1      -2.661   2.588 -21.815  0.00  0.00    +0.088 C 
ATOM     13  C   UNL     1      -2.480   2.864 -23.035  0.00  0.00    +0.046 C 
ATOM     14  C   UNL     1      -3.451   3.272 -23.736  0.00  0.00    -0.022 C 
ATOM     15  C   UNL     1      -3.275   3.546 -24.943  0.00  0.00    +0.004 C 
ATOM     16  C   UNL     1      -2.134   3.420 -25.472  0.00  0.00    +0.178 C 
ATOM     17  C   UNL     1      -1.176   3.017 -24.774  0.00  0.00    +0.217 C 
ATOM     18  O   UNL     1       0.294   2.665 -24.730  0.00  0.00    -0.481 OA
ATOM     19  C   UNL     1      -1.703   2.185 -21.118  0.00  0.00    +0.058 C 
ATOM     20  C   UNL     1       0.756   2.206 -23.379  0.00  0.00    +0.167 A 
ENDROOT
BRANCH   1  22
ATOM     21  C   UNL     1       3.628   0.761 -22.796  0.00  0.00    +0.277 C 
ATOM     22  O   UNL     1       2.863   1.669 -23.188  0.00  0.00    -0.491 OA
ENDBRANCH   1  22
BRANCH  16  23
ATOM     23  O   UNL     1      -1.964   3.696 -26.678  0.00  0.00    -0.384 OA
ATOM     24  H   UNL     1      -2.330   4.575 -26.864  0.00  0.00    +0.210 HD
ENDBRANCH  16  23
TORSDOF 2
ENDMDL
MODEL 3
REMARK VINA RESULT:   -10.611      1.939      5.306
REMARK INTER + INTRA:         -11.689
REMARK INTER:                 -11.581
REMARK INTRA:                  -0.107
REMARK UNBOUND:                -0.147
REMARK  Name = ZINC000096316347
REMARK  3 active torsions:
REMARK  status: ('A' for Active; 'I' for Inactive)
REMARK    1  A    between atoms: C_1  and  O_2
REMARK    2  A    between atoms: O_2  and  C_3
REMARK    3  A    between atoms: C_11  and  O_12
REMARK                            x       y       z     vdW  Elec       q    Type
REMARK                         _______ _______ _______ _____ _____    ______ ____
ROOT
ATOM      1  C   UNL     1      -3.530   3.486 -23.000  0.00  0.00    +0.162 A 
ATOM      2  C   UNL     1      -3.697   2.842 -21.924  0.00  0.00    +0.050 A 
ATOM      3  C   UNL     1      -2.751   2.200 -21.417  0.00  0.00    +0.008 A 
ATOM      4  C   UNL     1      -1.632   2.195 -21.978  0.00  0.00    -0.038 A 
ATOM      5  C   UNL     1      -1.443   2.829 -23.049  0.00  0.00    +0.012 A 
ATOM      6  C   UNL     1      -0.324   2.820 -23.604  0.00  0.00    +0.049 C 
ATOM      7  C   UNL     1       0.903   2.885 -24.327  0.00  0.00    +0.035 C 
ATOM      8  C   UNL     1       1.989   2.171 -23.779  0.00  0.00    +0.109 C 
ATOM      9  N   UNL     1       1.765   1.464 -22.578  0.00  0.00    -0.300 N 
ATOM     10  C   UNL     1       2.677   0.797 -22.015  0.00  0.00    +0.328 C 
ATOM     11  O   UNL     1       3.827   0.740 -22.511  0.00  0.00    -0.279 OA
ATOM     12  C   UNL     1       0.455   1.536 -22.024  0.00  0.00    +0.088 C 
ATOM     13  C   UNL     1       0.624   2.179 -23.099  0.00  0.00    +0.046 C 
ATOM     14  C   UNL     1       1.757   2.171 -23.662  0.00  0.00    -0.022 C 
ATOM     15  C   UNL     1       1.928   2.806 -24.726  0.00  0.00    +0.004 C 
ATOM     16  C   UNL     1       0.977   3.458 -25.246  0.00  0.00    +0.178 C 
ATOM     17  C   UNL     1      -0.142   3.463 -24.685  0.00  0.00    +0.217 C 
ATOM     18  O   UNL     1      -1.570   3.958 -24.721  0.00  0.00    -0.481 OA
ATOM     19  C   UNL     1      -0.664   1.542 -21.464  0.00  0.00    +0.058 C 
ATOM     20  C   UNL     1      -2.396   3.478 -23.564  0.00  0.00    +0.167 A 
ENDROOT
BRANCH   1  22
ATOM     21  C   UNL     1      -4.961   3.773 -24.603  0.00  0.00    +0.277 C 
ATOM     22  O   UNL     1      -4.479   4.127 -23.504  0.00  0.00    -0.491 OA
ENDBRANCH   1  22
BRANCH  16  23
ATOM     23  O   UNL     1       1.153   4.091 -26.308  0.00  0.00    -0.384 OA
ATOM     24  H   UNL     1       1.902   4.699 -26.202  0.00  0.00    +0.210 HD
ENDBRANCH  16  23
TORSDOF 2
ENDMDL
MODEL 4
REMARK VINA RESULT:   -10.426      1.822      3.250
REMARK INTER + INTRA:         -11.488
REMARK INTER:                 -11.379
REMARK INTRA:                  -0.109
REMARK UNBOUND:                -0.147
REMARK  Name = ZINC000096316347
REMARK  3 active torsions:
REMARK  status: ('A' for Active; 'I' for Inactive)
REMARK    1  A    between atoms: C_1  and  O_2
REMARK    2  A    between atoms: O_2  and  C_3
REMARK    3  A    between atoms: C_11  and  O_12
REMARK                            x       y       z     vdW  Elec       q    Type
REMARK                         _______ _______ _______ _____ _____    ______ ____
ROOT
ATOM      1  C   UNL     1       1.405   1.602 -22.081  0.00  0.00    +0.162 A 
ATOM      2  C   UNL     1       1.986   1.991 -23.136  0.00  0.00    +0.050 A 
ATOM      3  C   UNL     1       1.350   2.607 -24.020  0.00  0.00    +0.008 A 
ATOM      4  C   UNL     1       0.130   2.839 -23.859  0.00  0.00    -0.038 A 
ATOM      5  C   UNL     1      -0.468   2.462 -22.818  0.00  0.00    +0.012 A 
ATOM      6  C   UNL     1      -1.685   2.697 -22.664  0.00  0.00    +0.049 C 
ATOM      7  C   UNL     1      -3.066   2.906 -22.376  0.00  0.00    +0.035 C 
ATOM      8  C   UNL     1      -3.810   3.598 -23.354  0.00  0.00    +0.109 C 
ATOM      9  N   UNL     1      -3.129   4.016 -24.517  0.00  0.00    -0.300 N 
ATOM     10  C   UNL     1      -3.711   4.641 -25.446  0.00  0.00    +0.328 C 
ATOM     11  O   UNL     1      -4.932   4.915 -25.365  0.00  0.00    -0.279 OA
ATOM     12  C   UNL     1      -1.742   3.700 -24.599  0.00  0.00    +0.088 C 
ATOM     13  C   UNL     1      -2.324   3.312 -23.546  0.00  0.00    +0.046 C 
ATOM     14  C   UNL     1      -3.557   3.550 -23.388  0.00  0.00    -0.022 C 
ATOM     15  C   UNL     1      -4.136   3.168 -22.347  0.00  0.00    +0.004 C 
ATOM     16  C   UNL     1      -3.501   2.545 -21.449  0.00  0.00    +0.178 C 
ATOM     17  C   UNL     1      -2.281   2.312 -21.610  0.00  0.00    +0.217 C 
ATOM     18  O   UNL     1      -1.028   1.695 -21.034  0.00  0.00    -0.481 OA
ATOM     19  C   UNL     1      -0.523   3.467 -24.758  0.00  0.00    +0.058 C 
ATOM     20  C   UNL     1       0.171   1.840 -21.924  0.00  0.00    +0.167 A 
ENDROOT
BRANCH   1  22
ATOM     21  C   UNL     1       3.209   0.591 -21.433  0.00  0.00    +0.277 C 
ATOM     22  O   UNL     1       2.045   0.987 -21.201  0.00  0.00    -0.491 OA
ENDBRANCH   1  22
BRANCH  16  23
ATOM     23  O   UNL     1      -4.085   2.166 -20.412  0.00  0.00    -0.384 OA
ATOM     24  H   UNL     1      -4.815   1.572 -20.650  0.00  0.00    +0.210 HD
ENDBRANCH  16  23
TORSDOF 2
ENDMDL
MODEL 5
REMARK VINA RESULT:   -10.402      1.964      5.805
REMARK INTER + INTRA:         -11.462
REMARK INTER:                 -11.314
REMARK INTRA:                  -0.148
REMARK UNBOUND:                -0.147
REMARK  Name = ZINC000096316347
REMARK  3 active torsions:
REMARK  status: ('A' for Active; 'I' for Inactive)
REMARK    1  A    between atoms: C_1  and  O_2
REMARK    2  A    between atoms: O_2  and  C_3
REMARK    3  A    between atoms: C_11  and  O_12
REMARK                            x       y       z     vdW  Elec       q    Type
REMARK                         _______ _______ _______ _____ _____    ______ ____
ROOT
ATOM      1  C   UNL     1      -4.645   3.611 -22.729  0.00  0.00    +0.162 A 
ATOM      2  C   UNL     1      -4.814   4.092 -23.887  0.00  0.00    +0.050 A 
ATOM      3  C   UNL     1      -3.869   4.125 -24.704  0.00  0.00    +0.008 A 
ATOM      4  C   UNL     1      -2.747   3.677 -24.375  0.00  0.00    -0.038 A 
ATOM      5  C   UNL     1      -2.555   3.193 -23.229  0.00  0.00    +0.012 A 
ATOM      6  C   UNL     1      -1.434   2.748 -22.907  0.00  0.00    +0.049 C 
ATOM      7  C   UNL     1      -0.203   2.212 -22.425  0.00  0.00    +0.035 C 
ATOM      8  C   UNL     1       0.882   2.234 -23.326  0.00  0.00    +0.109 C 
ATOM      9  N   UNL     1       0.655   2.779 -24.607  0.00  0.00    -0.300 N 
ATOM     10  C   UNL     1       1.566   2.841 -25.479  0.00  0.00    +0.328 C 
ATOM     11  O   UNL     1       2.719   2.415 -25.231  0.00  0.00    -0.279 OA
ATOM     12  C   UNL     1      -0.657   3.260 -24.878  0.00  0.00    +0.088 C 
ATOM     13  C   UNL     1      -0.486   2.778 -23.722  0.00  0.00    +0.046 C 
ATOM     14  C   UNL     1       0.650   2.327 -23.394  0.00  0.00    -0.022 C 
ATOM     15  C   UNL     1       0.824   1.850 -22.251  0.00  0.00    +0.004 C 
ATOM     16  C   UNL     1      -0.127   1.813 -21.418  0.00  0.00    +0.178 C 
ATOM     17  C   UNL     1      -1.249   2.261 -21.748  0.00  0.00    +0.217 C 
ATOM     18  O   UNL     1      -2.678   2.518 -21.328  0.00  0.00    -0.481 OA
ATOM     19  C   UNL     1      -1.779   3.707 -25.206  0.00  0.00    +0.058 C 
ATOM     20  C   UNL     1      -3.508   3.159 -22.400  0.00  0.00    +0.167 A 
ENDROOT
BRANCH   1  22
ATOM     21  C   UNL     1      -6.260   2.533 -21.767  0.00  0.00    +0.277 C 
ATOM     22  O   UNL     1      -5.593   3.581 -21.914  0.00  0.00    -0.491 OA
ENDBRANCH   1  22
BRANCH  16  23
ATOM     23  O   UNL     1       0.052   1.335 -20.278  0.00  0.00    -0.384 OA
ATOM     24  H   UNL     1       0.579   0.523 -20.347  0.00  0.00    +0.210 HD
ENDBRANCH  16  23
TORSDOF 2
ENDMDL
MODEL 6
REMARK VINA RESULT:   -10.055      2.964      6.722
REMARK INTER + INTRA:         -11.085
REMARK INTER:                 -10.944
REMARK INTRA:                  -0.140
REMARK UNBOUND:                -0.147
REMARK  Name = ZINC000096316347
REMARK  3 active torsions:
REMARK  status: ('A' for Active; 'I' for Inactive)
REMARK    1  A    between atoms: C_1  and  O_2
REMARK    2  A    between atoms: O_2  and  C_3
REMARK    3  A    between atoms: C_11  and  O_12
REMARK                            x       y       z     vdW  Elec       q    Type
REMARK                         _______ _______ _______ _____ _____    ______ ____
ROOT
ATOM      1  C   UNL     1      -1.746   3.370 -23.200  0.00  0.00    +0.162 A 
ATOM      2  C   UNL     1      -1.751   4.631 -23.315  0.00  0.00    +0.050 A 
ATOM      3  C   UNL     1      -0.676   5.268 -23.345  0.00  0.00    +0.008 A 
ATOM      4  C   UNL     1       0.413   4.655 -23.261  0.00  0.00    -0.038 A 
ATOM      5  C   UNL     1       0.442   3.402 -23.146  0.00  0.00    +0.012 A 
ATOM      6  C   UNL     1       1.531   2.797 -23.062  0.00  0.00    +0.049 C 
ATOM      7  C   UNL     1       2.707   1.998 -22.958  0.00  0.00    +0.035 C 
ATOM      8  C   UNL     1       3.936   2.689 -22.989  0.00  0.00    +0.109 C 
ATOM      9  N   UNL     1       3.891   4.093 -23.119  0.00  0.00    -0.300 N 
ATOM     10  C   UNL     1       4.939   4.796 -23.156  0.00  0.00    +0.328 C 
ATOM     11  O   UNL     1       6.070   4.261 -23.077  0.00  0.00    -0.279 OA
ATOM     12  C   UNL     1       2.601   4.690 -23.207  0.00  0.00    +0.088 C 
ATOM     13  C   UNL     1       2.608   3.431 -23.092  0.00  0.00    +0.046 C 
ATOM     14  C   UNL     1       3.711   2.816 -23.007  0.00  0.00    -0.022 C 
ATOM     15  C   UNL     1       3.722   1.571 -22.893  0.00  0.00    +0.004 C 
ATOM     16  C   UNL     1       2.639   0.919 -22.861  0.00  0.00    +0.178 C 
ATOM     17  C   UNL     1       1.551   1.532 -22.946  0.00  0.00    +0.217 C 
ATOM     18  O   UNL     1       0.043   1.428 -22.976  0.00  0.00    -0.481 OA
ATOM     19  C   UNL     1       1.512   5.302 -23.291  0.00  0.00    +0.058 C 
ATOM     20  C   UNL     1      -0.642   2.755 -23.115  0.00  0.00    +0.167 A 
ENDROOT
BRANCH   1  22
ATOM     21  C   UNL     1      -3.498   2.695 -22.117  0.00  0.00    +0.277 C 
ATOM     22  O   UNL     1      -2.824   2.737 -23.170  0.00  0.00    -0.491 OA
ENDBRANCH   1  22
BRANCH  16  23
ATOM     23  O   UNL     1       2.656  -0.325 -22.747  0.00  0.00    -0.384 OA
ATOM     24  H   UNL     1       2.776  -0.729 -23.622  0.00  0.00    +0.210 HD
ENDBRANCH  16  23
TORSDOF 2
ENDMDL
MODEL 7
REMARK VINA RESULT:    -9.723      1.581      4.968
REMARK INTER + INTRA:         -10.723
REMARK INTER:                 -10.604
REMARK INTRA:                  -0.118
REMARK UNBOUND:                -0.147
REMARK  Name = ZINC000096316347
REMARK  3 active torsions:
REMARK  status: ('A' for Active; 'I' for Inactive)
REMARK    1  A    between atoms: C_1  and  O_2
REMARK    2  A    between atoms: O_2  and  C_3
REMARK    3  A    between atoms: C_11  and  O_12
REMARK                            x       y       z     vdW  Elec       q    Type
REMARK                         _______ _______ _______ _____ _____    ______ ____
ROOT
ATOM      1  C   UNL     1      -4.989   3.181 -21.984  0.00  0.00    +0.162 A 
ATOM      2  C   UNL     1      -4.595   2.942 -20.805  0.00  0.00    +0.050 A 
ATOM      3  C   UNL     1      -3.380   2.781 -20.563  0.00  0.00    +0.008 A 
ATOM      4  C   UNL     1      -2.546   2.857 -21.494  0.00  0.00    -0.038 A 
ATOM      5  C   UNL     1      -2.914   3.093 -22.674  0.00  0.00    +0.012 A 
ATOM      6  C   UNL     1      -2.077   3.168 -23.598  0.00  0.00    +0.049 C 
ATOM      7  C   UNL     1      -1.219   3.275 -24.732  0.00  0.00    +0.035 C 
ATOM      8  C   UNL     1       0.159   3.098 -24.490  0.00  0.00    +0.109 C 
ATOM      9  N   UNL     1       0.561   2.834 -23.164  0.00  0.00    -0.300 N 
ATOM     10  C   UNL     1       1.772   2.661 -22.852  0.00  0.00    +0.328 C 
ATOM     11  O   UNL     1       2.671   2.721 -23.724  0.00  0.00    -0.279 OA
ATOM     12  C   UNL     1      -0.469   2.768 -22.181  0.00  0.00    +0.088 C 
ATOM     13  C   UNL     1      -0.859   3.007 -23.360  0.00  0.00    +0.046 C 
ATOM     14  C   UNL     1      -0.013   3.083 -24.297  0.00  0.00    -0.022 C 
ATOM     15  C   UNL     1      -0.396   3.318 -25.464  0.00  0.00    +0.004 C 
ATOM     16  C   UNL     1      -1.623   3.483 -25.717  0.00  0.00    +0.178 C 
ATOM     17  C   UNL     1      -2.457   3.407 -24.787  0.00  0.00    +0.217 C 
ATOM     18  O   UNL     1      -3.913   3.483 -24.387  0.00  0.00    -0.481 OA
ATOM     19  C   UNL     1      -1.303   2.693 -21.252  0.00  0.00    +0.058 C 
ATOM     20  C   UNL     1      -4.141   3.257 -22.922  0.00  0.00    +0.167 A 
ENDROOT
BRANCH   1  22
ATOM     21  C   UNL     1      -7.050   2.565 -21.721  0.00  0.00    +0.277 C 
ATOM     22  O   UNL     1      -6.206   3.341 -22.221  0.00  0.00    -0.491 OA
ENDBRANCH   1  22
BRANCH  16  23
ATOM     23  O   UNL     1      -2.000   3.718 -26.885  0.00  0.00    -0.384 OA
ATOM     24  H   UNL     1      -1.230   3.739 -27.475  0.00  0.00    +0.210 HD
ENDBRANCH  16  23
TORSDOF 2
ENDMDL
MODEL 8
REMARK VINA RESULT:    -9.053      3.027      6.289
REMARK INTER + INTRA:          -9.995
REMARK INTER:                  -9.870
REMARK INTRA:                  -0.124
REMARK UNBOUND:                -0.147
REMARK  Name = ZINC000096316347
REMARK  3 active torsions:
REMARK  status: ('A' for Active; 'I' for Inactive)
REMARK    1  A    between atoms: C_1  and  O_2
REMARK    2  A    between atoms: O_2  and  C_3
REMARK    3  A    between atoms: C_11  and  O_12
REMARK                            x       y       z     vdW  Elec       q    Type
REMARK                         _______ _______ _______ _____ _____    ______ ____
ROOT
ATOM      1  C   UNL     1      -2.046   3.061 -22.144  0.00  0.00    +0.162 A 
ATOM      2  C   UNL     1      -2.047   1.839 -21.814  0.00  0.00    +0.050 A 
ATOM      3  C   UNL     1      -0.978   1.193 -21.771  0.00  0.00    +0.008 A 
ATOM      4  C   UNL     1       0.102   1.759 -22.058  0.00  0.00    -0.038 A 
ATOM      5  C   UNL     1       0.127   2.972 -22.389  0.00  0.00    +0.012 A 
ATOM      6  C   UNL     1       1.208   3.531 -22.673  0.00  0.00    +0.049 C 
ATOM      7  C   UNL     1       2.375   4.275 -23.019  0.00  0.00    +0.035 C 
ATOM      8  C   UNL     1       3.597   3.572 -22.980  0.00  0.00    +0.109 C 
ATOM      9  N   UNL     1       3.556   2.212 -22.607  0.00  0.00    -0.300 N 
ATOM     10  C   UNL     1       4.598   1.503 -22.544  0.00  0.00    +0.328 C 
ATOM     11  O   UNL     1       5.721   1.992 -22.815  0.00  0.00    -0.279 OA
ATOM     12  C   UNL     1       2.276   1.667 -22.301  0.00  0.00    +0.088 C 
ATOM     13  C   UNL     1       2.280   2.887 -22.632  0.00  0.00    +0.046 C 
ATOM     14  C   UNL     1       3.373   3.455 -22.920  0.00  0.00    -0.022 C 
ATOM     15  C   UNL     1       3.381   4.662 -23.247  0.00  0.00    +0.004 C 
ATOM     16  C   UNL     1       2.304   5.322 -23.293  0.00  0.00    +0.178 C 
ATOM     17  C   UNL     1       1.225   4.757 -23.007  0.00  0.00    +0.217 C 
ATOM     18  O   UNL     1      -0.273   4.897 -22.860  0.00  0.00    -0.481 OA
ATOM     19  C   UNL     1       1.195   1.103 -22.016  0.00  0.00    +0.058 C 
ATOM     20  C   UNL     1      -0.951   3.629 -22.433  0.00  0.00    +0.167 A 
ENDROOT
BRANCH   1  22
ATOM     21  C   UNL     1      -3.852   3.765 -21.174  0.00  0.00    +0.277 C 
ATOM     22  O   UNL     1      -3.117   3.703 -22.186  0.00  0.00    -0.491 OA
ENDBRANCH   1  22
BRANCH  16  23
ATOM     23  O   UNL     1       2.318   6.528 -23.621  0.00  0.00    -0.384 OA
ATOM     24  H   UNL     1       2.185   7.079 -22.833  0.00  0.00    +0.210 HD
ENDBRANCH  16  23
TORSDOF 2
ENDMDL
MODEL 9
REMARK VINA RESULT:    -8.927      2.170      4.034
REMARK INTER + INTRA:          -9.857
REMARK INTER:                  -9.710
REMARK INTRA:                  -0.147
REMARK UNBOUND:                -0.147
REMARK  Name = ZINC000096316347
REMARK  3 active torsions:
REMARK  status: ('A' for Active; 'I' for Inactive)
REMARK    1  A    between atoms: C_1  and  O_2
REMARK    2  A    between atoms: O_2  and  C_3
REMARK    3  A    between atoms: C_11  and  O_12
REMARK                            x       y       z     vdW  Elec       q    Type
REMARK                         _______ _______ _______ _____ _____    ______ ____
ROOT
ATOM      1  C   UNL     1       3.128   2.063 -22.074  0.00  0.00    +0.162 A 
ATOM      2  C   UNL     1       3.737   2.412 -23.128  0.00  0.00    +0.050 A 
ATOM      3  C   UNL     1       3.097   2.783 -24.136  0.00  0.00    +0.008 A 
ATOM      4  C   UNL     1       1.846   2.810 -24.103  0.00  0.00    -0.038 A 
ATOM      5  C   UNL     1       1.219   2.468 -23.066  0.00  0.00    +0.012 A 
ATOM      6  C   UNL     1      -0.029   2.497 -23.039  0.00  0.00    +0.049 C 
ATOM      7  C   UNL     1      -1.447   2.488 -22.889  0.00  0.00    +0.035 C 
ATOM      8  C   UNL     1      -2.196   2.902 -24.010  0.00  0.00    +0.109 C 
ATOM      9  N   UNL     1      -1.483   3.283 -25.166  0.00  0.00    -0.300 N 
ATOM     10  C   UNL     1      -2.068   3.668 -26.217  0.00  0.00    +0.328 C 
ATOM     11  O   UNL     1      -3.319   3.724 -26.268  0.00  0.00    -0.279 OA
ATOM     12  C   UNL     1      -0.062   3.216 -25.097  0.00  0.00    +0.088 C 
ATOM     13  C   UNL     1      -0.672   2.868 -24.046  0.00  0.00    +0.046 C 
ATOM     14  C   UNL     1      -1.937   2.897 -24.017  0.00  0.00    -0.022 C 
ATOM     15  C   UNL     1      -2.544   2.553 -22.979  0.00  0.00    +0.004 C 
ATOM     16  C   UNL     1      -1.905   2.177 -21.956  0.00  0.00    +0.178 C 
ATOM     17  C   UNL     1      -0.654   2.150 -21.989  0.00  0.00    +0.217 C 
ATOM     18  O   UNL     1       0.623   1.848 -21.237  0.00  0.00    -0.481 OA
ATOM     19  C   UNL     1       1.189   3.188 -25.129  0.00  0.00    +0.058 C 
ATOM     20  C   UNL     1       1.862   2.092 -22.046  0.00  0.00    +0.167 A 
ENDROOT
BRANCH   1  22
ATOM     21  C   UNL     1       4.050   0.483 -20.912  0.00  0.00    +0.277 C 
ATOM     22  O   UNL     1       3.772   1.693 -21.069  0.00  0.00    -0.491 OA
ENDBRANCH   1  22
BRANCH  16  23
ATOM     23  O   UNL     1      -2.517   1.835 -20.921  0.00  0.00    -0.384 OA
ATOM     24  H   UNL     1      -2.571   0.866 -20.883  0.00  0.00    +0.210 HD
ENDBRANCH  16  23
TORSDOF 2
ENDMDL
