MODEL 1
REMARK VINA RESULT:    -7.988      0.000      0.000
REMARK INTER + INTRA:         -18.233
REMARK INTER:                 -16.149
REMARK INTRA:                  -2.084
REMARK UNBOUND:                -2.072
REMARK  Name = ZINC000008382403
REMARK  24 active torsions:
REMARK  status: ('A' for Active; 'I' for Inactive)
REMARK    1  A    between atoms: C_1  and  O_2
REMARK    2  A    between atoms: O_2  and  C_3
REMARK    3  A    between atoms: C_3  and  O_4
REMARK    4  A    between atoms: O_4  and  C_5
REMARK    5  A    between atoms: C_8  and  C_9
REMARK    6  A    between atoms: C_10  and  C_11
REMARK    7  A    between atoms: C_11  and  C_13
REMARK    8  A    between atoms: C_14  and  O_15
REMARK    9  A    between atoms: O_15  and  C_16
REMARK   10  A    between atoms: C_16  and  O_17
REMARK   11  A    between atoms: O_17  and  C_18
REMARK   12  A    between atoms: C_20  and  O_21
REMARK   13  A    between atoms: O_21  and  C_22
REMARK   14  A    between atoms: C_22  and  O_23
REMARK   15  A    between atoms: O_23  and  C_24
REMARK   16  A    between atoms: C_25  and  C_26
REMARK   17  A    between atoms: C_26  and  C_27
REMARK   18  A    between atoms: C_28  and  C_29
REMARK   19  A    between atoms: C_28  and  C_30
REMARK   20  A    between atoms: C_31  and  O_32
REMARK   21  A    between atoms: C_34  and  O_35
REMARK   22  A    between atoms: O_35  and  C_36
REMARK   23  A    between atoms: C_36  and  O_37
REMARK   24  A    between atoms: O_37  and  C_38
REMARK                            x       y       z     vdW  Elec       q    Type
REMARK                         _______ _______ _______ _____ _____    ______ ____
ROOT
ATOM      1  C   UNL     1       1.547   2.031 -23.902  0.00  0.00    +0.105 A 
ATOM      2  C   UNL     1       1.224   1.681 -22.692  0.00  0.00    +0.141 A 
ATOM      3  C   UNL     1       0.097   2.075 -22.181  0.00  0.00    +0.092 A 
ATOM      4  C   UNL     1      -0.709   2.820 -22.878  0.00  0.00    +0.134 A 
ATOM      5  C   UNL     1      -0.386   3.170 -24.087  0.00  0.00    +0.040 A 
ATOM      6  C   UNL     1       0.742   2.776 -24.600  0.00  0.00    +0.138 A 
ENDROOT
BRANCH   1   7
ATOM      7  C   UNL     1       2.675   1.636 -24.414  0.00  0.00    +0.193 C 
ATOM      8  O   UNL     1       2.683   0.755 -25.369  0.00  0.00    -0.287 OA
BRANCH   7  10
ATOM      9  C   UNL     1       3.870   3.376 -23.628  0.00  0.00    +0.012 C 
ATOM     10  C   UNL     1       3.795   2.123 -23.970  0.00  0.00    +0.052 C 
BRANCH   9  14
ATOM     11  C   UNL     1       7.232   4.837 -22.296  0.00  0.00    +0.165 A 
ATOM     12  C   UNL     1       7.152   3.579 -22.617  0.00  0.00    +0.050 A 
ATOM     13  C   UNL     1       6.031   3.093 -23.061  0.00  0.00    +0.012 A 
ATOM     14  C   UNL     1       4.990   3.863 -23.184  0.00  0.00    -0.021 A 
ATOM     15  C   UNL     1       5.071   5.119 -22.863  0.00  0.00    +0.057 A 
ATOM     16  C   UNL     1       6.192   5.607 -22.419  0.00  0.00    +0.166 A 
BRANCH  11  17
ATOM     17  O   UNL     1       8.352   5.324 -21.852  0.00  0.00    -0.463 OA
BRANCH  17  18
ATOM     18  C   UNL     1       8.849   4.893 -20.730  0.00  0.00    +0.394 C 
BRANCH  18  20
ATOM     19  C   UNL     1       8.491   6.465 -19.158  0.00  0.00    +0.198 C 
ATOM     20  O   UNL     1       8.314   5.256 -19.601  0.00  0.00    -0.347 OA
ENDBRANCH  18  20
ENDBRANCH  17  18
ENDBRANCH  11  17
BRANCH  16  21
ATOM     21  O   UNL     1       6.272   6.864 -22.097  0.00  0.00    -0.463 OA
BRANCH  21  22
ATOM     22  C   UNL     1       5.217   7.493 -21.668  0.00  0.00    +0.394 C 
BRANCH  22  23
ATOM     23  O   UNL     1       5.156   8.789 -21.750  0.00  0.00    -0.347 OA
ATOM     24  C   UNL     1       4.092   9.361 -22.228  0.00  0.00    +0.198 C 
ENDBRANCH  22  23
ENDBRANCH  21  22
ENDBRANCH  16  21
ENDBRANCH   9  14
ENDBRANCH   7  10
ENDBRANCH   1   7
BRANCH   6  25
ATOM     25  O   UNL     1       1.064   3.126 -25.809  0.00  0.00    -0.506 OA
ATOM     26  H   UNL     1       1.198   2.471 -26.466  0.00  0.00    +0.292 HD
ENDBRANCH   6  25
BRANCH   2  27
ATOM     27  O   UNL     1       2.029   0.936 -21.994  0.00  0.00    -0.465 OA
BRANCH  27  28
ATOM     28  C   UNL     1       2.400   1.314 -20.807  0.00  0.00    +0.394 C 
BRANCH  28  29
ATOM     29  O   UNL     1       3.313   0.645 -20.167  0.00  0.00    -0.347 OA
ATOM     30  C   UNL     1       4.423   0.326 -20.764  0.00  0.00    +0.198 C 
ENDBRANCH  28  29
ENDBRANCH  27  28
ENDBRANCH   2  27
BRANCH   5  31
ATOM     31  C   UNL     1      -1.192   3.915 -24.786  0.00  0.00    +0.069 C 
BRANCH  31  32
ATOM     32  C   UNL     1      -2.010   3.368 -25.635  0.00  0.00    -0.023 C 
ATOM     33  C   UNL     1      -3.256   3.739 -25.668  0.00  0.00    -0.079 C 
ATOM     34  C   UNL     1      -3.682   4.658 -24.852  0.00  0.00    +0.038 C 
ATOM     35  C   UNL     1      -4.075   3.193 -26.516  0.00  0.00    +0.038 C 
ENDBRANCH  31  32
ENDBRANCH   5  31
BRANCH   4  36
ATOM     36  O   UNL     1      -1.837   3.214 -22.366  0.00  0.00    -0.466 OA
BRANCH  36  37
ATOM     37  C   UNL     1      -2.660   2.343 -21.860  0.00  0.00    +0.394 C 
BRANCH  37  38
ATOM     38  O   UNL     1      -3.464   2.691 -20.899  0.00  0.00    -0.347 OA
ATOM     39  C   UNL     1      -3.257   3.799 -20.249  0.00  0.00    +0.198 C 
ENDBRANCH  37  38
ENDBRANCH  36  37
ENDBRANCH   4  36
TORSDOF 18
ENDMDL
MODEL 2
REMARK VINA RESULT:    -7.233      1.709      2.501
REMARK INTER + INTRA:         -16.705
REMARK INTER:                 -14.502
REMARK INTRA:                  -2.204
REMARK UNBOUND:                -2.072
REMARK  Name = ZINC000008382403
REMARK  24 active torsions:
REMARK  status: ('A' for Active; 'I' for Inactive)
REMARK    1  A    between atoms: C_1  and  O_2
REMARK    2  A    between atoms: O_2  and  C_3
REMARK    3  A    between atoms: C_3  and  O_4
REMARK    4  A    between atoms: O_4  and  C_5
REMARK    5  A    between atoms: C_8  and  C_9
REMARK    6  A    between atoms: C_10  and  C_11
REMARK    7  A    between atoms: C_11  and  C_13
REMARK    8  A    between atoms: C_14  and  O_15
REMARK    9  A    between atoms: O_15  and  C_16
REMARK   10  A    between atoms: C_16  and  O_17
REMARK   11  A    between atoms: O_17  and  C_18
REMARK   12  A    between atoms: C_20  and  O_21
REMARK   13  A    between atoms: O_21  and  C_22
REMARK   14  A    between atoms: C_22  and  O_23
REMARK   15  A    between atoms: O_23  and  C_24
REMARK   16  A    between atoms: C_25  and  C_26
REMARK   17  A    between atoms: C_26  and  C_27
REMARK   18  A    between atoms: C_28  and  C_29
REMARK   19  A    between atoms: C_28  and  C_30
REMARK   20  A    between atoms: C_31  and  O_32
REMARK   21  A    between atoms: C_34  and  O_35
REMARK   22  A    between atoms: O_35  and  C_36
REMARK   23  A    between atoms: C_36  and  O_37
REMARK   24  A    between atoms: O_37  and  C_38
REMARK                            x       y       z     vdW  Elec       q    Type
REMARK                         _______ _______ _______ _____ _____    ______ ____
ROOT
ATOM      1  C   UNL     1       1.394   2.359 -23.836  0.00  0.00    +0.105 A 
ATOM      2  C   UNL     1       1.053   1.788 -22.719  0.00  0.00    +0.141 A 
ATOM      3  C   UNL     1      -0.162   1.906 -22.273  0.00  0.00    +0.092 A 
ATOM      4  C   UNL     1      -1.036   2.596 -22.943  0.00  0.00    +0.134 A 
ATOM      5  C   UNL     1      -0.695   3.167 -24.060  0.00  0.00    +0.040 A 
ATOM      6  C   UNL     1       0.520   3.049 -24.506  0.00  0.00    +0.138 A 
ENDROOT
BRANCH   1   7
ATOM      7  C   UNL     1       2.610   2.240 -24.282  0.00  0.00    +0.193 C 
ATOM      8  O   UNL     1       2.903   1.295 -25.124  0.00  0.00    -0.287 OA
BRANCH   7  10
ATOM      9  C   UNL     1       4.764   2.665 -23.783  0.00  0.00    +0.012 C 
ATOM     10  C   UNL     1       3.531   3.066 -23.885  0.00  0.00    +0.052 C 
BRANCH   9  14
ATOM     11  C   UNL     1       7.529   5.145 -22.592  0.00  0.00    +0.165 A 
ATOM     12  C   UNL     1       6.440   5.002 -21.896  0.00  0.00    +0.050 A 
ATOM     13  C   UNL     1       5.519   4.176 -22.293  0.00  0.00    +0.012 A 
ATOM     14  C   UNL     1       5.685   3.491 -23.386  0.00  0.00    -0.021 A 
ATOM     15  C   UNL     1       6.774   3.634 -24.081  0.00  0.00    +0.057 A 
ATOM     16  C   UNL     1       7.696   4.461 -23.685  0.00  0.00    +0.166 A 
BRANCH  11  17
ATOM     17  O   UNL     1       8.450   5.971 -22.195  0.00  0.00    -0.463 OA
BRANCH  17  18
ATOM     18  C   UNL     1       8.240   7.253 -22.247  0.00  0.00    +0.394 C 
BRANCH  18  20
ATOM     19  C   UNL     1       7.313   8.743 -20.835  0.00  0.00    +0.198 C 
ATOM     20  O   UNL     1       8.304   7.967 -21.162  0.00  0.00    -0.347 OA
ENDBRANCH  18  20
ENDBRANCH  17  18
ENDBRANCH  11  17
BRANCH  16  21
ATOM     21  O   UNL     1       8.784   4.603 -24.381  0.00  0.00    -0.463 OA
BRANCH  21  22
ATOM     22  C   UNL     1       8.808   4.245 -25.631  0.00  0.00    +0.394 C 
BRANCH  22  23
ATOM     23  O   UNL     1       8.745   5.146 -26.566  0.00  0.00    -0.347 OA
ATOM     24  C   UNL     1       8.937   4.809 -27.807  0.00  0.00    +0.198 C 
ENDBRANCH  22  23
ENDBRANCH  21  22
ENDBRANCH  16  21
ENDBRANCH   9  14
ENDBRANCH   7  10
ENDBRANCH   1   7
BRANCH   6  25
ATOM     25  O   UNL     1       0.861   3.620 -25.623  0.00  0.00    -0.506 OA
ATOM     26  H   UNL     1       1.751   3.877 -25.765  0.00  0.00    +0.292 HD
ENDBRANCH   6  25
BRANCH   2  27
ATOM     27  O   UNL     1       1.927   1.098 -22.048  0.00  0.00    -0.465 OA
BRANCH  27  28
ATOM     28  C   UNL     1       2.369   1.540 -20.908  0.00  0.00    +0.394 C 
BRANCH  28  29
ATOM     29  O   UNL     1       3.636   1.457 -20.626  0.00  0.00    -0.347 OA
ATOM     30  C   UNL     1       4.301   0.383 -20.931  0.00  0.00    +0.198 C 
ENDBRANCH  28  29
ENDBRANCH  27  28
ENDBRANCH   2  27
BRANCH   5  31
ATOM     31  C   UNL     1      -1.570   3.858 -24.731  0.00  0.00    +0.069 C 
BRANCH  31  32
ATOM     32  C   UNL     1      -2.378   3.258 -25.554  0.00  0.00    -0.023 C 
ATOM     33  C   UNL     1      -3.616   3.642 -25.644  0.00  0.00    -0.079 C 
ATOM     34  C   UNL     1      -4.046   4.626 -24.911  0.00  0.00    +0.038 C 
ATOM     35  C   UNL     1      -4.424   3.043 -26.466  0.00  0.00    +0.038 C 
ENDBRANCH  31  32
ENDBRANCH   5  31
BRANCH   4  36
ATOM     36  O   UNL     1      -2.251   2.715 -22.497  0.00  0.00    -0.466 OA
BRANCH  36  37
ATOM     37  C   UNL     1      -2.459   2.964 -21.237  0.00  0.00    +0.394 C 
BRANCH  37  38
ATOM     38  O   UNL     1      -3.653   2.839 -20.738  0.00  0.00    -0.347 OA
ATOM     39  C   UNL     1      -4.695   3.050 -21.488  0.00  0.00    +0.198 C 
ENDBRANCH  37  38
ENDBRANCH  36  37
ENDBRANCH   4  36
TORSDOF 18
ENDMDL
MODEL 3
REMARK VINA RESULT:    -6.926      1.499      8.496
REMARK INTER + INTRA:         -16.084
REMARK INTER:                 -14.317
REMARK INTRA:                  -1.768
REMARK UNBOUND:                -2.072
REMARK  Name = ZINC000008382403
REMARK  24 active torsions:
REMARK  status: ('A' for Active; 'I' for Inactive)
REMARK    1  A    between atoms: C_1  and  O_2
REMARK    2  A    between atoms: O_2  and  C_3
REMARK    3  A    between atoms: C_3  and  O_4
REMARK    4  A    between atoms: O_4  and  C_5
REMARK    5  A    between atoms: C_8  and  C_9
REMARK    6  A    between atoms: C_10  and  C_11
REMARK    7  A    between atoms: C_11  and  C_13
REMARK    8  A    between atoms: C_14  and  O_15
REMARK    9  A    between atoms: O_15  and  C_16
REMARK   10  A    between atoms: C_16  and  O_17
REMARK   11  A    between atoms: O_17  and  C_18
REMARK   12  A    between atoms: C_20  and  O_21
REMARK   13  A    between atoms: O_21  and  C_22
REMARK   14  A    between atoms: C_22  and  O_23
REMARK   15  A    between atoms: O_23  and  C_24
REMARK   16  A    between atoms: C_25  and  C_26
REMARK   17  A    between atoms: C_26  and  C_27
REMARK   18  A    between atoms: C_28  and  C_29
REMARK   19  A    between atoms: C_28  and  C_30
REMARK   20  A    between atoms: C_31  and  O_32
REMARK   21  A    between atoms: C_34  and  O_35
REMARK   22  A    between atoms: O_35  and  C_36
REMARK   23  A    between atoms: C_36  and  O_37
REMARK   24  A    between atoms: O_37  and  C_38
REMARK                            x       y       z     vdW  Elec       q    Type
REMARK                         _______ _______ _______ _____ _____    ______ ____
ROOT
ATOM      1  C   UNL     1       4.888   3.779 -22.864  0.00  0.00    +0.105 A 
ATOM      2  C   UNL     1       5.876   3.102 -22.357  0.00  0.00    +0.141 A 
ATOM      3  C   UNL     1       6.838   3.720 -21.740  0.00  0.00    +0.092 A 
ATOM      4  C   UNL     1       6.814   5.015 -21.630  0.00  0.00    +0.134 A 
ATOM      5  C   UNL     1       5.827   5.692 -22.136  0.00  0.00    +0.040 A 
ATOM      6  C   UNL     1       4.864   5.074 -22.754  0.00  0.00    +0.138 A 
ENDROOT
BRANCH   1   7
ATOM      7  C   UNL     1       3.926   3.160 -23.482  0.00  0.00    +0.193 C 
ATOM      8  O   UNL     1       4.153   2.580 -24.622  0.00  0.00    -0.287 OA
BRANCH   7  10
ATOM      9  C   UNL     1       1.818   2.366 -23.483  0.00  0.00    +0.012 C 
ATOM     10  C   UNL     1       2.737   3.123 -22.958  0.00  0.00    +0.052 C 
BRANCH   9  14
ATOM     11  C   UNL     1      -1.750   2.254 -21.912  0.00  0.00    +0.165 A 
ATOM     12  C   UNL     1      -0.708   1.985 -21.181  0.00  0.00    +0.050 A 
ATOM     13  C   UNL     1       0.481   2.023 -21.705  0.00  0.00    +0.012 A 
ATOM     14  C   UNL     1       0.630   2.329 -22.960  0.00  0.00    -0.021 A 
ATOM     15  C   UNL     1      -0.411   2.597 -23.690  0.00  0.00    +0.057 A 
ATOM     16  C   UNL     1      -1.601   2.560 -23.167  0.00  0.00    +0.166 A 
BRANCH  11  17
ATOM     17  O   UNL     1      -2.939   2.216 -21.389  0.00  0.00    -0.463 OA
BRANCH  17  18
ATOM     18  C   UNL     1      -3.453   3.290 -20.868  0.00  0.00    +0.394 C 
BRANCH  18  20
ATOM     19  C   UNL     1      -5.490   3.033 -21.793  0.00  0.00    +0.198 C 
ATOM     20  O   UNL     1      -4.532   3.807 -21.379  0.00  0.00    -0.347 OA
ENDBRANCH  18  20
ENDBRANCH  17  18
ENDBRANCH  11  17
BRANCH  16  21
ATOM     21  O   UNL     1      -2.642   2.828 -23.898  0.00  0.00    -0.463 OA
BRANCH  21  22
ATOM     22  C   UNL     1      -2.631   3.861 -24.689  0.00  0.00    +0.394 C 
BRANCH  22  23
ATOM     23  O   UNL     1      -3.676   4.631 -24.766  0.00  0.00    -0.347 OA
ATOM     24  C   UNL     1      -4.806   4.151 -25.193  0.00  0.00    +0.198 C 
ENDBRANCH  22  23
ENDBRANCH  21  22
ENDBRANCH  16  21
ENDBRANCH   9  14
ENDBRANCH   7  10
ENDBRANCH   1   7
BRANCH   6  25
ATOM     25  O   UNL     1       3.877   5.751 -23.261  0.00  0.00    -0.506 OA
ATOM     26  H   UNL     1       4.042   6.401 -23.915  0.00  0.00    +0.292 HD
ENDBRANCH   6  25
BRANCH   2  27
ATOM     27  O   UNL     1       5.901   1.807 -22.467  0.00  0.00    -0.465 OA
BRANCH  27  28
ATOM     28  C   UNL     1       5.559   1.061 -21.459  0.00  0.00    +0.394 C 
BRANCH  28  29
ATOM     29  O   UNL     1       4.499   0.313 -21.532  0.00  0.00    -0.347 OA
ATOM     30  C   UNL     1       3.571   0.409 -20.627  0.00  0.00    +0.198 C 
ENDBRANCH  28  29
ENDBRANCH  27  28
ENDBRANCH   2  27
BRANCH   5  31
ATOM     31  C   UNL     1       5.802   6.988 -22.026  0.00  0.00    +0.069 C 
BRANCH  31  32
ATOM     32  C   UNL     1       5.253   7.540 -20.985  0.00  0.00    -0.023 C 
ATOM     33  C   UNL     1       4.530   8.612 -21.124  0.00  0.00    -0.079 C 
ATOM     34  C   UNL     1       4.357   9.131 -22.304  0.00  0.00    +0.038 C 
ATOM     35  C   UNL     1       3.981   9.165 -20.085  0.00  0.00    +0.038 C 
ENDBRANCH  31  32
ENDBRANCH   5  31
BRANCH   4  36
ATOM     36  O   UNL     1       7.776   5.633 -21.012  0.00  0.00    -0.466 OA
BRANCH  36  37
ATOM     37  C   UNL     1       8.225   5.172 -19.882  0.00  0.00    +0.394 C 
BRANCH  37  38
ATOM     38  O   UNL     1       8.904   5.945 -19.088  0.00  0.00    -0.347 OA
ATOM     39  C   UNL     1       8.825   7.238 -19.216  0.00  0.00    +0.198 C 
ENDBRANCH  37  38
ENDBRANCH  36  37
ENDBRANCH   4  36
TORSDOF 18
ENDMDL
MODEL 4
REMARK VINA RESULT:    -5.998      2.814      9.214
REMARK INTER + INTRA:         -14.206
REMARK INTER:                 -12.510
REMARK INTRA:                  -1.697
REMARK UNBOUND:                -2.072
REMARK  Name = ZINC000008382403
REMARK  24 active torsions:
REMARK  status: ('A' for Active; 'I' for Inactive)
REMARK    1  A    between atoms: C_1  and  O_2
REMARK    2  A    between atoms: O_2  and  C_3
REMARK    3  A    between atoms: C_3  and  O_4
REMARK    4  A    between atoms: O_4  and  C_5
REMARK    5  A    between atoms: C_8  and  C_9
REMARK    6  A    between atoms: C_10  and  C_11
REMARK    7  A    between atoms: C_11  and  C_13
REMARK    8  A    between atoms: C_14  and  O_15
REMARK    9  A    between atoms: O_15  and  C_16
REMARK   10  A    between atoms: C_16  and  O_17
REMARK   11  A    between atoms: O_17  and  C_18
REMARK   12  A    between atoms: C_20  and  O_21
REMARK   13  A    between atoms: O_21  and  C_22
REMARK   14  A    between atoms: C_22  and  O_23
REMARK   15  A    between atoms: O_23  and  C_24
REMARK   16  A    between atoms: C_25  and  C_26
REMARK   17  A    between atoms: C_26  and  C_27
REMARK   18  A    between atoms: C_28  and  C_29
REMARK   19  A    between atoms: C_28  and  C_30
REMARK   20  A    between atoms: C_31  and  O_32
REMARK   21  A    between atoms: C_34  and  O_35
REMARK   22  A    between atoms: O_35  and  C_36
REMARK   23  A    between atoms: C_36  and  O_37
REMARK   24  A    between atoms: O_37  and  C_38
REMARK                            x       y       z     vdW  Elec       q    Type
REMARK                         _______ _______ _______ _____ _____    ______ ____
ROOT
ATOM      1  C   UNL     1       6.673   4.689 -22.919  0.00  0.00    +0.105 A 
ATOM      2  C   UNL     1       6.751   5.750 -22.171  0.00  0.00    +0.141 A 
ATOM      3  C   UNL     1       7.547   6.722 -22.503  0.00  0.00    +0.092 A 
ATOM      4  C   UNL     1       8.266   6.633 -23.582  0.00  0.00    +0.134 A 
ATOM      5  C   UNL     1       8.189   5.573 -24.329  0.00  0.00    +0.040 A 
ATOM      6  C   UNL     1       7.392   4.600 -23.998  0.00  0.00    +0.138 A 
ENDROOT
BRANCH   1   7
ATOM      7  C   UNL     1       5.876   3.717 -22.586  0.00  0.00    +0.193 C 
ATOM      8  O   UNL     1       6.355   2.649 -22.021  0.00  0.00    -0.287 OA
BRANCH   7  10
ATOM      9  C   UNL     1       3.959   2.811 -23.345  0.00  0.00    +0.012 C 
ATOM     10  C   UNL     1       4.602   3.813 -22.820  0.00  0.00    +0.052 C 
BRANCH   9  14
ATOM     11  C   UNL     1       0.133   3.101 -24.046  0.00  0.00    +0.165 A 
ATOM     12  C   UNL     1       0.976   3.810 -24.737  0.00  0.00    +0.050 A 
ATOM     13  C   UNL     1       2.251   3.713 -24.503  0.00  0.00    +0.012 A 
ATOM     14  C   UNL     1       2.684   2.908 -23.579  0.00  0.00    -0.021 A 
ATOM     15  C   UNL     1       1.842   2.199 -22.888  0.00  0.00    +0.057 A 
ATOM     16  C   UNL     1       0.566   2.295 -23.122  0.00  0.00    +0.166 A 
BRANCH  11  17
ATOM     17  O   UNL     1      -1.142   3.197 -24.279  0.00  0.00    -0.463 OA
BRANCH  17  18
ATOM     18  C   UNL     1      -1.560   3.621 -25.435  0.00  0.00    +0.394 C 
BRANCH  18  20
ATOM     19  C   UNL     1      -3.088   3.435 -27.079  0.00  0.00    +0.198 C 
ATOM     20  O   UNL     1      -2.777   3.365 -25.819  0.00  0.00    -0.347 OA
ENDBRANCH  18  20
ENDBRANCH  17  18
ENDBRANCH  11  17
BRANCH  16  21
ATOM     21  O   UNL     1      -0.276   1.586 -22.431  0.00  0.00    -0.463 OA
BRANCH  21  22
ATOM     22  C   UNL     1      -1.011   2.155 -21.521  0.00  0.00    +0.394 C 
BRANCH  22  23
ATOM     23  O   UNL     1      -2.307   2.058 -21.578  0.00  0.00    -0.347 OA
ATOM     24  C   UNL     1      -3.051   2.911 -20.940  0.00  0.00    +0.198 C 
ENDBRANCH  22  23
ENDBRANCH  21  22
ENDBRANCH  16  21
ENDBRANCH   9  14
ENDBRANCH   7  10
ENDBRANCH   1   7
BRANCH   6  25
ATOM     25  O   UNL     1       7.315   3.540 -24.745  0.00  0.00    -0.506 OA
ATOM     26  H   UNL     1       7.762   2.756 -24.493  0.00  0.00    +0.292 HD
ENDBRANCH   6  25
BRANCH   2  27
ATOM     27  O   UNL     1       6.031   5.839 -21.092  0.00  0.00    -0.465 OA
BRANCH  27  28
ATOM     28  C   UNL     1       6.025   6.941 -20.403  0.00  0.00    +0.394 C 
BRANCH  28  29
ATOM     29  O   UNL     1       4.914   7.593 -20.229  0.00  0.00    -0.347 OA
ATOM     30  C   UNL     1       4.772   8.782 -20.735  0.00  0.00    +0.198 C 
ENDBRANCH  28  29
ENDBRANCH  27  28
ENDBRANCH   2  27
BRANCH   5  31
ATOM     31  C   UNL     1       8.909   5.484 -25.409  0.00  0.00    +0.069 C 
BRANCH  31  32
ATOM     32  C   UNL     1       8.601   6.193 -26.455  0.00  0.00    -0.023 C 
ATOM     33  C   UNL     1       8.677   5.667 -27.642  0.00  0.00    -0.079 C 
ATOM     34  C   UNL     1       9.062   4.433 -27.782  0.00  0.00    +0.038 C 
ATOM     35  C   UNL     1       8.370   6.375 -28.687  0.00  0.00    +0.038 C 
ENDBRANCH  31  32
ENDBRANCH   5  31
BRANCH   4  36
ATOM     36  O   UNL     1       9.062   7.606 -23.914  0.00  0.00    -0.466 OA
BRANCH  36  37
ATOM     37  C   UNL     1       8.718   8.838 -23.675  0.00  0.00    +0.394 C 
BRANCH  37  38
ATOM     38  O   UNL     1       8.052   9.510 -24.565  0.00  0.00    -0.347 OA
ATOM     39  C   UNL     1       8.120  10.809 -24.584  0.00  0.00    +0.198 C 
ENDBRANCH  37  38
ENDBRANCH  36  37
ENDBRANCH   4  36
TORSDOF 18
ENDMDL
MODEL 5
REMARK VINA RESULT:    -5.926      2.243      8.894
REMARK INTER + INTRA:         -14.060
REMARK INTER:                 -12.140
REMARK INTRA:                  -1.920
REMARK UNBOUND:                -2.072
REMARK  Name = ZINC000008382403
REMARK  24 active torsions:
REMARK  status: ('A' for Active; 'I' for Inactive)
REMARK    1  A    between atoms: C_1  and  O_2
REMARK    2  A    between atoms: O_2  and  C_3
REMARK    3  A    between atoms: C_3  and  O_4
REMARK    4  A    between atoms: O_4  and  C_5
REMARK    5  A    between atoms: C_8  and  C_9
REMARK    6  A    between atoms: C_10  and  C_11
REMARK    7  A    between atoms: C_11  and  C_13
REMARK    8  A    between atoms: C_14  and  O_15
REMARK    9  A    between atoms: O_15  and  C_16
REMARK   10  A    between atoms: C_16  and  O_17
REMARK   11  A    between atoms: O_17  and  C_18
REMARK   12  A    between atoms: C_20  and  O_21
REMARK   13  A    between atoms: O_21  and  C_22
REMARK   14  A    between atoms: C_22  and  O_23
REMARK   15  A    between atoms: O_23  and  C_24
REMARK   16  A    between atoms: C_25  and  C_26
REMARK   17  A    between atoms: C_26  and  C_27
REMARK   18  A    between atoms: C_28  and  C_29
REMARK   19  A    between atoms: C_28  and  C_30
REMARK   20  A    between atoms: C_31  and  O_32
REMARK   21  A    between atoms: C_34  and  O_35
REMARK   22  A    between atoms: O_35  and  C_36
REMARK   23  A    between atoms: C_36  and  O_37
REMARK   24  A    between atoms: O_37  and  C_38
REMARK                            x       y       z     vdW  Elec       q    Type
REMARK                         _______ _______ _______ _____ _____    ______ ____
ROOT
ATOM      1  C   UNL     1       7.086   6.263 -21.808  0.00  0.00    +0.105 A 
ATOM      2  C   UNL     1       7.848   6.459 -22.844  0.00  0.00    +0.141 A 
ATOM      3  C   UNL     1       8.122   7.669 -23.229  0.00  0.00    +0.092 A 
ATOM      4  C   UNL     1       7.636   8.685 -22.579  0.00  0.00    +0.134 A 
ATOM      5  C   UNL     1       6.876   8.489 -21.544  0.00  0.00    +0.040 A 
ATOM      6  C   UNL     1       6.601   7.279 -21.158  0.00  0.00    +0.138 A 
ENDROOT
BRANCH   1   7
ATOM      7  C   UNL     1       6.812   5.053 -21.422  0.00  0.00    +0.193 C 
ATOM      8  O   UNL     1       7.613   4.433 -20.608  0.00  0.00    -0.287 OA
BRANCH   7  10
ATOM      9  C   UNL     1       4.932   5.085 -22.662  0.00  0.00    +0.012 C 
ATOM     10  C   UNL     1       5.737   4.463 -21.851  0.00  0.00    +0.052 C 
BRANCH   9  14
ATOM     11  C   UNL     1       1.705   3.315 -23.951  0.00  0.00    +0.165 A 
ATOM     12  C   UNL     1       1.693   4.593 -23.710  0.00  0.00    +0.050 A 
ATOM     13  C   UNL     1       2.769   5.182 -23.281  0.00  0.00    +0.012 A 
ATOM     14  C   UNL     1       3.857   4.496 -23.091  0.00  0.00    -0.021 A 
ATOM     15  C   UNL     1       3.868   3.219 -23.332  0.00  0.00    +0.057 A 
ATOM     16  C   UNL     1       2.792   2.628 -23.761  0.00  0.00    +0.166 A 
BRANCH  11  17
ATOM     17  O   UNL     1       0.629   2.725 -24.380  0.00  0.00    -0.463 OA
BRANCH  17  18
ATOM     18  C   UNL     1      -0.414   2.634 -23.609  0.00  0.00    +0.394 C 
BRANCH  18  20
ATOM     19  C   UNL     1      -0.250   1.398 -21.734  0.00  0.00    +0.198 C 
ATOM     20  O   UNL     1      -0.651   1.530 -22.964  0.00  0.00    -0.347 OA
ENDBRANCH  18  20
ENDBRANCH  17  18
ENDBRANCH  11  17
BRANCH  16  21
ATOM     21  O   UNL     1       2.804   1.350 -24.002  0.00  0.00    -0.463 OA
BRANCH  21  22
ATOM     22  C   UNL     1       3.524   0.557 -23.264  0.00  0.00    +0.394 C 
BRANCH  22  23
ATOM     23  O   UNL     1       3.050   0.107 -22.140  0.00  0.00    -0.347 OA
ATOM     24  C   UNL     1       3.662   0.371 -21.025  0.00  0.00    +0.198 C 
ENDBRANCH  22  23
ENDBRANCH  21  22
ENDBRANCH  16  21
ENDBRANCH   9  14
ENDBRANCH   7  10
ENDBRANCH   1   7
BRANCH   6  25
ATOM     25  O   UNL     1       5.840   7.084 -20.122  0.00  0.00    -0.506 OA
ATOM     26  H   UNL     1       4.926   7.282 -20.168  0.00  0.00    +0.292 HD
ENDBRANCH   6  25
BRANCH   2  27
ATOM     27  O   UNL     1       8.334   5.444 -23.494  0.00  0.00    -0.465 OA
BRANCH  27  28
ATOM     28  C   UNL     1       8.134   5.334 -24.774  0.00  0.00    +0.394 C 
BRANCH  28  29
ATOM     29  O   UNL     1       7.960   4.162 -25.308  0.00  0.00    -0.347 OA
ATOM     30  C   UNL     1       8.507   3.114 -24.766  0.00  0.00    +0.198 C 
ENDBRANCH  28  29
ENDBRANCH  27  28
ENDBRANCH   2  27
BRANCH   5  31
ATOM     31  C   UNL     1       6.389   9.505 -20.893  0.00  0.00    +0.069 C 
BRANCH  31  32
ATOM     32  C   UNL     1       5.149   9.854 -21.066  0.00  0.00    -0.023 C 
ATOM     33  C   UNL     1       4.831  11.113 -21.131  0.00  0.00    -0.079 C 
ATOM     34  C   UNL     1       5.754  12.023 -21.023  0.00  0.00    +0.038 C 
ATOM     35  C   UNL     1       3.592  11.462 -21.304  0.00  0.00    +0.038 C 
ENDBRANCH  31  32
ENDBRANCH   5  31
BRANCH   4  36
ATOM     36  O   UNL     1       7.911   9.895 -22.965  0.00  0.00    -0.466 OA
BRANCH  36  37
ATOM     37  C   UNL     1       8.192  10.131 -24.213  0.00  0.00    +0.394 C 
BRANCH  37  38
ATOM     38  O   UNL     1       7.406  10.882 -24.925  0.00  0.00    -0.347 OA
ATOM     39  C   UNL     1       6.149  10.989 -24.609  0.00  0.00    +0.198 C 
ENDBRANCH  37  38
ENDBRANCH  36  37
ENDBRANCH   4  36
TORSDOF 18
ENDMDL
MODEL 6
REMARK VINA RESULT:    -5.605      2.864      9.020
REMARK INTER + INTRA:         -13.412
REMARK INTER:                 -11.157
REMARK INTRA:                  -2.255
REMARK UNBOUND:                -2.072
REMARK  Name = ZINC000008382403
REMARK  24 active torsions:
REMARK  status: ('A' for Active; 'I' for Inactive)
REMARK    1  A    between atoms: C_1  and  O_2
REMARK    2  A    between atoms: O_2  and  C_3
REMARK    3  A    between atoms: C_3  and  O_4
REMARK    4  A    between atoms: O_4  and  C_5
REMARK    5  A    between atoms: C_8  and  C_9
REMARK    6  A    between atoms: C_10  and  C_11
REMARK    7  A    between atoms: C_11  and  C_13
REMARK    8  A    between atoms: C_14  and  O_15
REMARK    9  A    between atoms: O_15  and  C_16
REMARK   10  A    between atoms: C_16  and  O_17
REMARK   11  A    between atoms: O_17  and  C_18
REMARK   12  A    between atoms: C_20  and  O_21
REMARK   13  A    between atoms: O_21  and  C_22
REMARK   14  A    between atoms: C_22  and  O_23
REMARK   15  A    between atoms: O_23  and  C_24
REMARK   16  A    between atoms: C_25  and  C_26
REMARK   17  A    between atoms: C_26  and  C_27
REMARK   18  A    between atoms: C_28  and  C_29
REMARK   19  A    between atoms: C_28  and  C_30
REMARK   20  A    between atoms: C_31  and  O_32
REMARK   21  A    between atoms: C_34  and  O_35
REMARK   22  A    between atoms: O_35  and  C_36
REMARK   23  A    between atoms: C_36  and  O_37
REMARK   24  A    between atoms: O_37  and  C_38
REMARK                            x       y       z     vdW  Elec       q    Type
REMARK                         _______ _______ _______ _____ _____    ______ ____
ROOT
ATOM      1  C   UNL     1       5.321   8.922 -22.122  0.00  0.00    +0.105 A 
ATOM      2  C   UNL     1       6.619   8.892 -22.038  0.00  0.00    +0.141 A 
ATOM      3  C   UNL     1       7.328   9.816 -22.614  0.00  0.00    +0.092 A 
ATOM      4  C   UNL     1       6.742  10.769 -23.274  0.00  0.00    +0.134 A 
ATOM      5  C   UNL     1       5.446  10.799 -23.359  0.00  0.00    +0.040 A 
ATOM      6  C   UNL     1       4.735   9.875 -22.783  0.00  0.00    +0.138 A 
ENDROOT
BRANCH   1   7
ATOM      7  C   UNL     1       4.611   7.997 -21.546  0.00  0.00    +0.193 C 
ATOM      8  O   UNL     1       4.038   8.236 -20.405  0.00  0.00    -0.287 OA
BRANCH   7  10
ATOM      9  C   UNL     1       3.302   6.440 -22.512  0.00  0.00    +0.012 C 
ATOM     10  C   UNL     1       4.475   6.836 -22.112  0.00  0.00    +0.052 C 
BRANCH   9  14
ATOM     11  C   UNL     1       2.893   2.953 -24.211  0.00  0.00    +0.165 A 
ATOM     12  C   UNL     1       4.056   3.326 -23.763  0.00  0.00    +0.050 A 
ATOM     13  C   UNL     1       4.192   4.488 -23.197  0.00  0.00    +0.012 A 
ATOM     14  C   UNL     1       3.166   5.278 -23.078  0.00  0.00    -0.021 A 
ATOM     15  C   UNL     1       2.005   4.905 -23.526  0.00  0.00    +0.057 A 
ATOM     16  C   UNL     1       1.868   3.743 -24.092  0.00  0.00    +0.166 A 
BRANCH  11  17
ATOM     17  O   UNL     1       2.757   1.791 -24.777  0.00  0.00    -0.463 OA
BRANCH  17  18
ATOM     18  C   UNL     1       3.278   0.735 -24.226  0.00  0.00    +0.394 C 
BRANCH  18  20
ATOM     19  C   UNL     1       3.072   0.348 -22.017  0.00  0.00    +0.198 C 
ATOM     20  O   UNL     1       2.668   0.150 -23.237  0.00  0.00    -0.347 OA
ENDBRANCH  18  20
ENDBRANCH  17  18
ENDBRANCH  11  17
BRANCH  16  21
ATOM     21  O   UNL     1       0.706   3.371 -24.540  0.00  0.00    -0.463 OA
BRANCH  21  22
ATOM     22  C   UNL     1      -0.245   3.066 -23.706  0.00  0.00    +0.394 C 
BRANCH  22  23
ATOM     23  O   UNL     1      -0.406   1.833 -23.328  0.00  0.00    -0.347 OA
ATOM     24  C   UNL     1      -0.385   1.533 -22.063  0.00  0.00    +0.198 C 
ENDBRANCH  22  23
ENDBRANCH  21  22
ENDBRANCH  16  21
ENDBRANCH   9  14
ENDBRANCH   7  10
ENDBRANCH   1   7
BRANCH   6  25
ATOM     25  O   UNL     1       3.439   9.905 -22.868  0.00  0.00    -0.506 OA
ATOM     26  H   UNL     1       3.021  10.497 -23.462  0.00  0.00    +0.292 HD
ENDBRANCH   6  25
BRANCH   2  27
ATOM     27  O   UNL     1       7.205   7.939 -21.377  0.00  0.00    -0.465 OA
BRANCH  27  28
ATOM     28  C   UNL     1       8.102   8.224 -20.481  0.00  0.00    +0.394 C 
BRANCH  28  29
ATOM     29  O   UNL     1       8.840   7.281 -19.974  0.00  0.00    -0.347 OA
ATOM     30  C   UNL     1       8.282   6.232 -19.447  0.00  0.00    +0.198 C 
ENDBRANCH  28  29
ENDBRANCH  27  28
ENDBRANCH   2  27
BRANCH   5  31
ATOM     31  C   UNL     1       4.859  11.753 -24.020  0.00  0.00    +0.069 C 
BRANCH  31  32
ATOM     32  C   UNL     1       4.652  11.626 -25.297  0.00  0.00    -0.023 C 
ATOM     33  C   UNL     1       3.523  12.012 -25.814  0.00  0.00    -0.079 C 
ATOM     34  C   UNL     1       2.601  12.525 -25.053  0.00  0.00    +0.038 C 
ATOM     35  C   UNL     1       3.316  11.886 -27.090  0.00  0.00    +0.038 C 
ENDBRANCH  31  32
ENDBRANCH   5  31
BRANCH   4  36
ATOM     36  O   UNL     1       7.453  11.693 -23.850  0.00  0.00    -0.466 OA
BRANCH  36  37
ATOM     37  C   UNL     1       8.672  11.436 -24.224  0.00  0.00    +0.394 C 
BRANCH  37  38
ATOM     38  O   UNL     1       9.061  11.742 -25.426  0.00  0.00    -0.347 OA
ATOM     39  C   UNL     1       8.180  12.015 -26.344  0.00  0.00    +0.198 C 
ENDBRANCH  37  38
ENDBRANCH  36  37
ENDBRANCH   4  36
TORSDOF 18
ENDMDL
MODEL 7
REMARK VINA RESULT:    -5.568      1.626      8.634
REMARK INTER + INTRA:         -13.336
REMARK INTER:                 -12.958
REMARK INTRA:                  -0.378
REMARK UNBOUND:                -2.072
REMARK  Name = ZINC000008382403
REMARK  24 active torsions:
REMARK  status: ('A' for Active; 'I' for Inactive)
REMARK    1  A    between atoms: C_1  and  O_2
REMARK    2  A    between atoms: O_2  and  C_3
REMARK    3  A    between atoms: C_3  and  O_4
REMARK    4  A    between atoms: O_4  and  C_5
REMARK    5  A    between atoms: C_8  and  C_9
REMARK    6  A    between atoms: C_10  and  C_11
REMARK    7  A    between atoms: C_11  and  C_13
REMARK    8  A    between atoms: C_14  and  O_15
REMARK    9  A    between atoms: O_15  and  C_16
REMARK   10  A    between atoms: C_16  and  O_17
REMARK   11  A    between atoms: O_17  and  C_18
REMARK   12  A    between atoms: C_20  and  O_21
REMARK   13  A    between atoms: O_21  and  C_22
REMARK   14  A    between atoms: C_22  and  O_23
REMARK   15  A    between atoms: O_23  and  C_24
REMARK   16  A    between atoms: C_25  and  C_26
REMARK   17  A    between atoms: C_26  and  C_27
REMARK   18  A    between atoms: C_28  and  C_29
REMARK   19  A    between atoms: C_28  and  C_30
REMARK   20  A    between atoms: C_31  and  O_32
REMARK   21  A    between atoms: C_34  and  O_35
REMARK   22  A    between atoms: O_35  and  C_36
REMARK   23  A    between atoms: C_36  and  O_37
REMARK   24  A    between atoms: O_37  and  C_38
REMARK                            x       y       z     vdW  Elec       q    Type
REMARK                         _______ _______ _______ _____ _____    ______ ____
ROOT
ATOM      1  C   UNL     1       4.742   3.121 -22.919  0.00  0.00    +0.105 A 
ATOM      2  C   UNL     1       5.637   2.519 -22.193  0.00  0.00    +0.141 A 
ATOM      3  C   UNL     1       6.567   3.209 -21.604  0.00  0.00    +0.092 A 
ATOM      4  C   UNL     1       6.603   4.501 -21.739  0.00  0.00    +0.134 A 
ATOM      5  C   UNL     1       5.709   5.103 -22.465  0.00  0.00    +0.040 A 
ATOM      6  C   UNL     1       4.778   4.414 -23.055  0.00  0.00    +0.138 A 
ENDROOT
BRANCH   1   7
ATOM      7  C   UNL     1       3.812   2.431 -23.509  0.00  0.00    +0.193 C 
ATOM      8  O   UNL     1       4.056   1.219 -23.908  0.00  0.00    -0.287 OA
BRANCH   7  10
ATOM      9  C   UNL     1       1.624   2.553 -22.990  0.00  0.00    +0.012 C 
ATOM     10  C   UNL     1       2.638   2.954 -23.700  0.00  0.00    +0.052 C 
BRANCH   9  14
ATOM     11  C   UNL     1      -1.901   4.122 -23.563  0.00  0.00    +0.165 A 
ATOM     12  C   UNL     1      -0.834   4.761 -23.947  0.00  0.00    +0.050 A 
ATOM     13  C   UNL     1       0.340   4.237 -23.756  0.00  0.00    +0.012 A 
ATOM     14  C   UNL     1       0.450   3.076 -23.181  0.00  0.00    -0.021 A 
ATOM     15  C   UNL     1      -0.616   2.439 -22.798  0.00  0.00    +0.057 A 
ATOM     16  C   UNL     1      -1.791   2.961 -22.989  0.00  0.00    +0.166 A 
BRANCH  11  17
ATOM     17  O   UNL     1      -3.075   4.645 -23.754  0.00  0.00    -0.463 OA
BRANCH  17  18
ATOM     18  C   UNL     1      -3.484   4.900 -24.962  0.00  0.00    +0.394 C 
BRANCH  18  20
ATOM     19  C   UNL     1      -5.287   3.600 -25.324  0.00  0.00    +0.198 C 
ATOM     20  O   UNL     1      -4.745   4.779 -25.259  0.00  0.00    -0.347 OA
ENDBRANCH  18  20
ENDBRANCH  17  18
ENDBRANCH  11  17
BRANCH  16  21
ATOM     21  O   UNL     1      -2.857   2.323 -22.605  0.00  0.00    -0.463 OA
BRANCH  21  22
ATOM     22  C   UNL     1      -3.306   2.477 -21.394  0.00  0.00    +0.394 C 
BRANCH  22  23
ATOM     23  O   UNL     1      -4.567   2.291 -21.140  0.00  0.00    -0.347 OA
ATOM     24  C   UNL     1      -5.462   3.036 -21.716  0.00  0.00    +0.198 C 
ENDBRANCH  22  23
ENDBRANCH  21  22
ENDBRANCH  16  21
ENDBRANCH   9  14
ENDBRANCH   7  10
ENDBRANCH   1   7
BRANCH   6  25
ATOM     25  O   UNL     1       3.884   5.016 -23.780  0.00  0.00    -0.506 OA
ATOM     26  H   UNL     1       3.635   4.658 -24.610  0.00  0.00    +0.292 HD
ENDBRANCH   6  25
BRANCH   2  27
ATOM     27  O   UNL     1       5.601   1.226 -22.057  0.00  0.00    -0.465 OA
BRANCH  27  28
ATOM     28  C   UNL     1       5.689   0.694 -20.875  0.00  0.00    +0.394 C 
BRANCH  28  29
ATOM     29  O   UNL     1       4.703  -0.011 -20.404  0.00  0.00    -0.347 OA
ATOM     30  C   UNL     1       3.481   0.414 -20.534  0.00  0.00    +0.198 C 
ENDBRANCH  28  29
ENDBRANCH  27  28
ENDBRANCH   2  27
BRANCH   5  31
ATOM     31  C   UNL     1       5.745   6.396 -22.601  0.00  0.00    +0.069 C 
BRANCH  31  32
ATOM     32  C   UNL     1       4.994   7.149 -21.852  0.00  0.00    -0.023 C 
ATOM     33  C   UNL     1       5.454   8.276 -21.396  0.00  0.00    -0.079 C 
ATOM     34  C   UNL     1       6.665   8.650 -21.688  0.00  0.00    +0.038 C 
ATOM     35  C   UNL     1       4.705   9.029 -20.648  0.00  0.00    +0.038 C 
ENDBRANCH  31  32
ENDBRANCH   5  31
BRANCH   4  36
ATOM     36  O   UNL     1       7.534   5.190 -21.149  0.00  0.00    -0.466 OA
BRANCH  36  37
ATOM     37  C   UNL     1       7.561   5.267 -19.851  0.00  0.00    +0.394 C 
BRANCH  37  38
ATOM     38  O   UNL     1       7.761   6.414 -19.272  0.00  0.00    -0.347 OA
ATOM     39  C   UNL     1       8.972   6.795 -18.986  0.00  0.00    +0.198 C 
ENDBRANCH  37  38
ENDBRANCH  36  37
ENDBRANCH   4  36
TORSDOF 18
ENDMDL
MODEL 8
REMARK VINA RESULT:    -5.457      3.263      9.009
REMARK INTER + INTRA:         -13.113
REMARK INTER:                 -11.509
REMARK INTRA:                  -1.603
REMARK UNBOUND:                -2.072
REMARK  Name = ZINC000008382403
REMARK  24 active torsions:
REMARK  status: ('A' for Active; 'I' for Inactive)
REMARK    1  A    between atoms: C_1  and  O_2
REMARK    2  A    between atoms: O_2  and  C_3
REMARK    3  A    between atoms: C_3  and  O_4
REMARK    4  A    between atoms: O_4  and  C_5
REMARK    5  A    between atoms: C_8  and  C_9
REMARK    6  A    between atoms: C_10  and  C_11
REMARK    7  A    between atoms: C_11  and  C_13
REMARK    8  A    between atoms: C_14  and  O_15
REMARK    9  A    between atoms: O_15  and  C_16
REMARK   10  A    between atoms: C_16  and  O_17
REMARK   11  A    between atoms: O_17  and  C_18
REMARK   12  A    between atoms: C_20  and  O_21
REMARK   13  A    between atoms: O_21  and  C_22
REMARK   14  A    between atoms: C_22  and  O_23
REMARK   15  A    between atoms: O_23  and  C_24
REMARK   16  A    between atoms: C_25  and  C_26
REMARK   17  A    between atoms: C_26  and  C_27
REMARK   18  A    between atoms: C_28  and  C_29
REMARK   19  A    between atoms: C_28  and  C_30
REMARK   20  A    between atoms: C_31  and  O_32
REMARK   21  A    between atoms: C_34  and  O_35
REMARK   22  A    between atoms: O_35  and  C_36
REMARK   23  A    between atoms: C_36  and  O_37
REMARK   24  A    between atoms: O_37  and  C_38
REMARK                            x       y       z     vdW  Elec       q    Type
REMARK                         _______ _______ _______ _____ _____    ______ ____
ROOT
ATOM      1  C   UNL     1       7.745   5.231 -23.634  0.00  0.00    +0.105 A 
ATOM      2  C   UNL     1       7.803   6.240 -22.815  0.00  0.00    +0.141 A 
ATOM      3  C   UNL     1       8.206   7.399 -23.240  0.00  0.00    +0.092 A 
ATOM      4  C   UNL     1       8.552   7.552 -24.484  0.00  0.00    +0.134 A 
ATOM      5  C   UNL     1       8.494   6.544 -25.303  0.00  0.00    +0.040 A 
ATOM      6  C   UNL     1       8.091   5.384 -24.878  0.00  0.00    +0.138 A 
ENDROOT
BRANCH   1   7
ATOM      7  C   UNL     1       7.341   4.071 -23.209  0.00  0.00    +0.193 C 
ATOM      8  O   UNL     1       8.186   3.250 -22.660  0.00  0.00    -0.287 OA
BRANCH   7  10
ATOM      9  C   UNL     1       5.156   4.610 -23.119  0.00  0.00    +0.012 C 
ATOM     10  C   UNL     1       6.092   3.732 -23.333  0.00  0.00    +0.052 C 
BRANCH   9  14
ATOM     11  C   UNL     1       1.409   3.594 -23.489  0.00  0.00    +0.165 A 
ATOM     12  C   UNL     1       1.735   4.848 -23.380  0.00  0.00    +0.050 A 
ATOM     13  C   UNL     1       2.984   5.186 -23.257  0.00  0.00    +0.012 A 
ATOM     14  C   UNL     1       3.908   4.271 -23.242  0.00  0.00    -0.021 A 
ATOM     15  C   UNL     1       3.582   3.018 -23.351  0.00  0.00    +0.057 A 
ATOM     16  C   UNL     1       2.332   2.679 -23.475  0.00  0.00    +0.166 A 
BRANCH  11  17
ATOM     17  O   UNL     1       0.160   3.255 -23.613  0.00  0.00    -0.463 OA
BRANCH  17  18
ATOM     18  C   UNL     1      -0.649   3.378 -22.603  0.00  0.00    +0.394 C 
BRANCH  18  20
ATOM     19  C   UNL     1      -0.626   1.498 -21.363  0.00  0.00    +0.198 C 
ATOM     20  O   UNL     1      -1.262   2.332 -22.131  0.00  0.00    -0.347 OA
ENDBRANCH  18  20
ENDBRANCH  17  18
ENDBRANCH  11  17
BRANCH  16  21
ATOM     21  O   UNL     1       2.007   1.425 -23.583  0.00  0.00    -0.463 OA
BRANCH  21  22
ATOM     22  C   UNL     1       2.808   0.504 -23.133  0.00  0.00    +0.394 C 
BRANCH  22  23
ATOM     23  O   UNL     1       2.715   0.112 -21.897  0.00  0.00    -0.347 OA
ATOM     24  C   UNL     1       3.662   0.396 -21.053  0.00  0.00    +0.198 C 
ENDBRANCH  22  23
ENDBRANCH  21  22
ENDBRANCH  16  21
ENDBRANCH   9  14
ENDBRANCH   7  10
ENDBRANCH   1   7
BRANCH   6  25
ATOM     25  O   UNL     1       8.033   4.376 -25.697  0.00  0.00    -0.506 OA
ATOM     26  H   UNL     1       8.775   3.813 -25.799  0.00  0.00    +0.292 HD
ENDBRANCH   6  25
BRANCH   2  27
ATOM     27  O   UNL     1       7.457   6.087 -21.572  0.00  0.00    -0.465 OA
BRANCH  27  28
ATOM     28  C   UNL     1       6.868   7.057 -20.937  0.00  0.00    +0.394 C 
BRANCH  28  29
ATOM     29  O   UNL     1       5.572   7.163 -20.967  0.00  0.00    -0.347 OA
ATOM     30  C   UNL     1       5.007   8.301 -20.695  0.00  0.00    +0.198 C 
ENDBRANCH  28  29
ENDBRANCH  27  28
ENDBRANCH   2  27
BRANCH   5  31
ATOM     31  C   UNL     1       8.840   6.696 -26.547  0.00  0.00    +0.069 C 
BRANCH  31  32
ATOM     32  C   UNL     1       8.022   7.261 -27.385  0.00  0.00    -0.023 C 
ATOM     33  C   UNL     1       7.788   6.709 -28.537  0.00  0.00    -0.079 C 
ATOM     34  C   UNL     1       8.372   5.590 -28.853  0.00  0.00    +0.038 C 
ATOM     35  C   UNL     1       6.970   7.273 -29.375  0.00  0.00    +0.038 C 
ENDBRANCH  31  32
ENDBRANCH   5  31
BRANCH   4  36
ATOM     36  O   UNL     1       8.956   8.712 -24.909  0.00  0.00    -0.466 OA
BRANCH  36  37
ATOM     37  C   UNL     1       8.415   9.799 -24.441  0.00  0.00    +0.394 C 
BRANCH  37  38
ATOM     38  O   UNL     1       9.062  10.925 -24.504  0.00  0.00    -0.347 OA
ATOM     39  C   UNL     1       8.495  11.972 -25.028  0.00  0.00    +0.198 C 
ENDBRANCH  37  38
ENDBRANCH  36  37
ENDBRANCH   4  36
TORSDOF 18
ENDMDL
MODEL 9
REMARK VINA RESULT:    -5.123      2.720      9.160
REMARK INTER + INTRA:         -12.437
REMARK INTER:                 -10.365
REMARK INTRA:                  -2.072
REMARK UNBOUND:                -2.072
REMARK  Name = ZINC000008382403
REMARK  24 active torsions:
REMARK  status: ('A' for Active; 'I' for Inactive)
REMARK    1  A    between atoms: C_1  and  O_2
REMARK    2  A    between atoms: O_2  and  C_3
REMARK    3  A    between atoms: C_3  and  O_4
REMARK    4  A    between atoms: O_4  and  C_5
REMARK    5  A    between atoms: C_8  and  C_9
REMARK    6  A    between atoms: C_10  and  C_11
REMARK    7  A    between atoms: C_11  and  C_13
REMARK    8  A    between atoms: C_14  and  O_15
REMARK    9  A    between atoms: O_15  and  C_16
REMARK   10  A    between atoms: C_16  and  O_17
REMARK   11  A    between atoms: O_17  and  C_18
REMARK   12  A    between atoms: C_20  and  O_21
REMARK   13  A    between atoms: O_21  and  C_22
REMARK   14  A    between atoms: C_22  and  O_23
REMARK   15  A    between atoms: O_23  and  C_24
REMARK   16  A    between atoms: C_25  and  C_26
REMARK   17  A    between atoms: C_26  and  C_27
REMARK   18  A    between atoms: C_28  and  C_29
REMARK   19  A    between atoms: C_28  and  C_30
REMARK   20  A    between atoms: C_31  and  O_32
REMARK   21  A    between atoms: C_34  and  O_35
REMARK   22  A    between atoms: O_35  and  C_36
REMARK   23  A    between atoms: C_36  and  O_37
REMARK   24  A    between atoms: O_37  and  C_38
REMARK                            x       y       z     vdW  Elec       q    Type
REMARK                         _______ _______ _______ _____ _____    ______ ____
ROOT
ATOM      1  C   UNL     1       5.431   8.652 -22.142  0.00  0.00    +0.105 A 
ATOM      2  C   UNL     1       6.670   8.447 -22.478  0.00  0.00    +0.141 A 
ATOM      3  C   UNL     1       7.332   9.366 -23.115  0.00  0.00    +0.092 A 
ATOM      4  C   UNL     1       6.755  10.491 -23.417  0.00  0.00    +0.134 A 
ATOM      5  C   UNL     1       5.516  10.696 -23.082  0.00  0.00    +0.040 A 
ATOM      6  C   UNL     1       4.854   9.777 -22.444  0.00  0.00    +0.138 A 
ENDROOT
BRANCH   1   7
ATOM      7  C   UNL     1       4.769   7.732 -21.505  0.00  0.00    +0.193 C 
ATOM      8  O   UNL     1       5.012   7.510 -20.248  0.00  0.00    -0.287 OA
BRANCH   7  10
ATOM      9  C   UNL     1       4.123   5.815 -22.495  0.00  0.00    +0.012 C 
ATOM     10  C   UNL     1       3.864   7.035 -22.125  0.00  0.00    +0.052 C 
BRANCH   9  14
ATOM     11  C   UNL     1       1.407   3.724 -24.357  0.00  0.00    +0.165 A 
ATOM     12  C   UNL     1       1.101   4.881 -23.847  0.00  0.00    +0.050 A 
ATOM     13  C   UNL     1       2.007   5.577 -23.227  0.00  0.00    +0.012 A 
ATOM     14  C   UNL     1       3.218   5.119 -23.115  0.00  0.00    -0.021 A 
ATOM     15  C   UNL     1       3.524   3.963 -23.624  0.00  0.00    +0.057 A 
ATOM     16  C   UNL     1       2.619   3.265 -24.245  0.00  0.00    +0.166 A 
BRANCH  11  17
ATOM     17  O   UNL     1       0.503   3.027 -24.977  0.00  0.00    -0.463 OA
BRANCH  17  18
ATOM     18  C   UNL     1      -0.747   3.380 -24.912  0.00  0.00    +0.394 C 
BRANCH  18  20
ATOM     19  C   UNL     1      -1.882   2.642 -23.113  0.00  0.00    +0.198 C 
ATOM     20  O   UNL     1      -1.622   2.576 -24.385  0.00  0.00    -0.347 OA
ENDBRANCH  18  20
ENDBRANCH  17  18
ENDBRANCH  11  17
BRANCH  16  21
ATOM     21  O   UNL     1       2.925   2.109 -24.754  0.00  0.00    -0.463 OA
BRANCH  21  22
ATOM     22  C   UNL     1       3.473   1.195 -24.008  0.00  0.00    +0.394 C 
BRANCH  22  23
ATOM     23  O   UNL     1       2.732   0.459 -23.233  0.00  0.00    -0.347 OA
ATOM     24  C   UNL     1       2.953   0.437 -21.953  0.00  0.00    +0.198 C 
ENDBRANCH  22  23
ENDBRANCH  21  22
ENDBRANCH  16  21
ENDBRANCH   9  14
ENDBRANCH   7  10
ENDBRANCH   1   7
BRANCH   6  25
ATOM     25  O   UNL     1       3.615   9.982 -22.109  0.00  0.00    -0.506 OA
ATOM     26  H   UNL     1       3.306   9.708 -21.269  0.00  0.00    +0.292 HD
ENDBRANCH   6  25
BRANCH   2  27
ATOM     27  O   UNL     1       7.247   7.322 -22.176  0.00  0.00    -0.465 OA
BRANCH  27  28
ATOM     28  C   UNL     1       8.310   6.941 -22.821  0.00  0.00    +0.394 C 
BRANCH  28  29
ATOM     29  O   UNL     1       8.495   5.682 -23.084  0.00  0.00    -0.347 OA
ATOM     30  C   UNL     1       7.525   4.972 -23.579  0.00  0.00    +0.198 C 
ENDBRANCH  28  29
ENDBRANCH  27  28
ENDBRANCH   2  27
BRANCH   5  31
ATOM     31  C   UNL     1       4.939  11.822 -23.384  0.00  0.00    +0.069 C 
BRANCH  31  32
ATOM     32  C   UNL     1       4.345  11.959 -24.532  0.00  0.00    -0.023 C 
ATOM     33  C   UNL     1       3.187  12.548 -24.599  0.00  0.00    -0.079 C 
ATOM     34  C   UNL     1       2.624  12.999 -23.516  0.00  0.00    +0.038 C 
ATOM     35  C   UNL     1       2.593  12.685 -25.745  0.00  0.00    +0.038 C 
ENDBRANCH  31  32
ENDBRANCH   5  31
BRANCH   4  36
ATOM     36  O   UNL     1       7.417  11.410 -24.054  0.00  0.00    -0.466 OA
BRANCH  36  37
ATOM     37  C   UNL     1       8.013  11.123 -25.174  0.00  0.00    +0.394 C 
BRANCH  37  38
ATOM     38  O   UNL     1       7.309  10.849 -26.232  0.00  0.00    -0.347 OA
ATOM     39  C   UNL     1       7.821  10.125 -27.184  0.00  0.00    +0.198 C 
ENDBRANCH  37  38
ENDBRANCH  36  37
ENDBRANCH   4  36
TORSDOF 18
ENDMDL
