MODEL 1
REMARK VINA RESULT:   -11.332      0.000      0.000
REMARK INTER + INTRA:         -12.117
REMARK INTER:                 -11.969
REMARK INTRA:                  -0.148
REMARK UNBOUND:                -0.123
REMARK  Name = COc1ccc2c3c1O[C@]1(C)C(=O)C=C[C@]4(Br)[C@@H](C2)N(C)CC[C@]314        ZINC000253505035
REMARK  4 active torsions:
REMARK  status: ('A' for Active; 'I' for Inactive)
REMARK    1  A    between atoms: C_1  and  O_2
REMARK    2  A    between atoms: O_2  and  C_3
REMARK    3  A    between atoms: C_10  and  C_11
REMARK    4  A    between atoms: N_20  and  C_21
REMARK                            x       y       z     vdW  Elec       q    Type
REMARK                         _______ _______ _______ _____ _____    ______ ____
ROOT
ATOM      1  C   UNL     1       0.443   2.184 -23.231  0.00  0.00    +0.162 A 
ATOM      2  C   UNL     1       0.378   1.832 -22.017  0.00  0.00    +0.050 A 
ATOM      3  C   UNL     1      -0.706   1.899 -21.393  0.00  0.00    +0.008 A 
ATOM      4  C   UNL     1      -1.735   2.316 -21.973  0.00  0.00    -0.034 A 
ATOM      5  C   UNL     1      -1.693   2.672 -23.185  0.00  0.00    +0.014 A 
ATOM      6  C   UNL     1      -2.723   3.089 -23.762  0.00  0.00    +0.075 C 
ATOM      7  C   UNL     1      -3.828   3.578 -24.521  0.00  0.00    +0.069 C 
ATOM      8  C   UNL     1      -5.064   3.663 -23.843  0.00  0.00    +0.132 C 
ATOM      9  N   UNL     1      -5.099   3.264 -22.493  0.00  0.00    +0.237 N 
ATOM     10  H   UNL     1      -5.973   3.311 -21.968  0.00  0.00    +0.203 HD
ATOM     11  C   UNL     1      -6.156   3.309 -21.822  0.00  0.00    +0.191 C 
ATOM     12  C   UNL     1      -3.875   2.804 -21.923  0.00  0.00    +0.090 C 
ATOM     13  C   UNL     1      -3.804   3.154 -23.137  0.00  0.00    +0.101 C 
ATOM     14 BR   UNL     1      -2.777   2.736 -22.553  0.00  0.00    -0.073 Br
ATOM     15  C   UNL     1      -4.850   3.574 -23.714  0.00  0.00    +0.001 C 
ATOM     16  C   UNL     1      -4.799   3.926 -24.919  0.00  0.00    +0.048 C 
ATOM     17  C   UNL     1      -3.709   3.864 -25.563  0.00  0.00    +0.200 C 
ATOM     18  O   UNL     1      -3.663   4.216 -26.763  0.00  0.00    -0.288 OA
ATOM     19  C   UNL     1      -2.673   3.446 -24.985  0.00  0.00    +0.181 C 
ATOM     20  C   UNL     1      -2.337   3.723 -26.162  0.00  0.00    +0.065 C 
ATOM     21  O   UNL     1      -1.197   3.132 -25.093  0.00  0.00    -0.473 OA
ATOM     22  C   UNL     1      -2.845   2.387 -21.344  0.00  0.00    +0.091 C 
ATOM     23  C   UNL     1      -0.600   2.606 -23.817  0.00  0.00    +0.168 A 
ENDROOT
BRANCH   1  25
ATOM     24  C   UNL     1       2.191   3.156 -24.075  0.00  0.00    +0.277 C 
ATOM     25  O   UNL     1       1.529   2.116 -23.851  0.00  0.00    -0.491 OA
ENDBRANCH   1  25
TORSDOF 1
ENDMDL
MODEL 2
REMARK VINA RESULT:   -10.793      1.958      3.148
REMARK INTER + INTRA:         -11.546
REMARK INTER:                 -11.429
REMARK INTRA:                  -0.118
REMARK UNBOUND:                -0.123
REMARK  Name = COc1ccc2c3c1O[C@]1(C)C(=O)C=C[C@]4(Br)[C@@H](C2)N(C)CC[C@]314        ZINC000253505035
REMARK  4 active torsions:
REMARK  status: ('A' for Active; 'I' for Inactive)
REMARK    1  A    between atoms: C_1  and  O_2
REMARK    2  A    between atoms: O_2  and  C_3
REMARK    3  A    between atoms: C_10  and  C_11
REMARK    4  A    between atoms: N_20  and  C_21
REMARK                            x       y       z     vdW  Elec       q    Type
REMARK                         _______ _______ _______ _____ _____    ______ ____
ROOT
ATOM      1  C   UNL     1       0.124   1.873 -21.586  0.00  0.00    +0.162 A 
ATOM      2  C   UNL     1       0.979   1.904 -22.519  0.00  0.00    +0.050 A 
ATOM      3  C   UNL     1       0.657   2.290 -23.666  0.00  0.00    +0.008 A 
ATOM      4  C   UNL     1      -0.521   2.649 -23.894  0.00  0.00    -0.034 A 
ATOM      5  C   UNL     1      -1.393   2.627 -22.978  0.00  0.00    +0.014 A 
ATOM      6  C   UNL     1      -2.569   2.987 -23.210  0.00  0.00    +0.075 C 
ATOM      7  C   UNL     1      -3.935   3.372 -23.356  0.00  0.00    +0.069 C 
ATOM      8  C   UNL     1      -4.328   3.812 -24.639  0.00  0.00    +0.132 C 
ATOM      9  N   UNL     1      -3.349   3.832 -25.652  0.00  0.00    +0.237 N 
ATOM     10  H   UNL     1      -3.593   4.143 -26.593  0.00  0.00    +0.203 HD
ATOM     11  C   UNL     1      -3.617   4.209 -26.816  0.00  0.00    +0.191 C 
ATOM     12  C   UNL     1      -2.037   3.404 -25.292  0.00  0.00    +0.090 C 
ATOM     13  C   UNL     1      -2.889   3.372 -24.356  0.00  0.00    +0.101 C 
ATOM     14 BR   UNL     1      -1.709   3.013 -24.131  0.00  0.00    -0.073 Br
ATOM     15  C   UNL     1      -4.076   3.737 -24.597  0.00  0.00    +0.001 C 
ATOM     16  C   UNL     1      -4.936   3.712 -23.682  0.00  0.00    +0.048 C 
ATOM     17  C   UNL     1      -4.623   3.324 -22.516  0.00  0.00    +0.200 C 
ATOM     18  O   UNL     1      -5.482   3.301 -21.606  0.00  0.00    -0.288 OA
ATOM     19  C   UNL     1      -3.442   2.962 -22.282  0.00  0.00    +0.181 C 
ATOM     20  C   UNL     1      -4.073   2.837 -21.204  0.00  0.00    +0.065 C 
ATOM     21  O   UNL     1      -2.451   2.441 -21.263  0.00  0.00    -0.473 OA
ATOM     22  C   UNL     1      -0.860   3.044 -25.062  0.00  0.00    +0.091 C 
ATOM     23  C   UNL     1      -1.069   2.238 -21.820  0.00  0.00    +0.168 A 
ENDROOT
BRANCH   1  25
ATOM     24  C   UNL     1       1.655   1.495 -20.095  0.00  0.00    +0.277 C 
ATOM     25  O   UNL     1       0.451   1.487 -20.441  0.00  0.00    -0.491 OA
ENDBRANCH   1  25
TORSDOF 1
ENDMDL
MODEL 3
REMARK VINA RESULT:   -10.775      2.136      5.392
REMARK INTER + INTRA:         -11.527
REMARK INTER:                 -11.410
REMARK INTRA:                  -0.117
REMARK UNBOUND:                -0.123
REMARK  Name = COc1ccc2c3c1O[C@]1(C)C(=O)C=C[C@]4(Br)[C@@H](C2)N(C)CC[C@]314        ZINC000253505035
REMARK  4 active torsions:
REMARK  status: ('A' for Active; 'I' for Inactive)
REMARK    1  A    between atoms: C_1  and  O_2
REMARK    2  A    between atoms: O_2  and  C_3
REMARK    3  A    between atoms: C_10  and  C_11
REMARK    4  A    between atoms: N_20  and  C_21
REMARK                            x       y       z     vdW  Elec       q    Type
REMARK                         _______ _______ _______ _____ _____    ______ ____
ROOT
ATOM      1  C   UNL     1      -4.634   3.721 -22.991  0.00  0.00    +0.162 A 
ATOM      2  C   UNL     1      -4.832   4.170 -24.158  0.00  0.00    +0.050 A 
ATOM      3  C   UNL     1      -3.906   4.180 -25.002  0.00  0.00    +0.008 A 
ATOM      4  C   UNL     1      -2.775   3.742 -24.690  0.00  0.00    -0.034 A 
ATOM      5  C   UNL     1      -2.554   3.288 -23.531  0.00  0.00    +0.014 A 
ATOM      6  C   UNL     1      -1.422   2.851 -23.223  0.00  0.00    +0.075 C 
ATOM      7  C   UNL     1      -0.177   2.329 -22.760  0.00  0.00    +0.069 C 
ATOM      8  C   UNL     1       0.885   2.327 -23.690  0.00  0.00    +0.132 C 
ATOM      9  N   UNL     1       0.629   2.835 -24.978  0.00  0.00    +0.237 N 
ATOM     10  H   UNL     1       1.371   2.852 -25.678  0.00  0.00    +0.203 HD
ATOM     11  C   UNL     1       1.518   2.869 -25.860  0.00  0.00    +0.191 C 
ATOM     12  C   UNL     1      -0.692   3.311 -25.234  0.00  0.00    +0.090 C 
ATOM     13  C   UNL     1      -0.500   2.862 -24.066  0.00  0.00    +0.101 C 
ATOM     14 BR   UNL     1      -1.630   3.301 -24.382  0.00  0.00    -0.073 Br
ATOM     15  C   UNL     1       0.648   2.422 -23.762  0.00  0.00    +0.001 C 
ATOM     16  C   UNL     1       0.858   1.973 -22.608  0.00  0.00    +0.048 C 
ATOM     17  C   UNL     1      -0.070   1.956 -21.744  0.00  0.00    +0.200 C 
ATOM     18  O   UNL     1       0.144   1.508 -20.596  0.00  0.00    -0.288 OA
ATOM     19  C   UNL     1      -1.207   2.395 -22.052  0.00  0.00    +0.181 C 
ATOM     20  C   UNL     1      -1.283   2.016 -20.858  0.00  0.00    +0.065 C 
ATOM     21  O   UNL     1      -2.628   2.664 -21.607  0.00  0.00    -0.473 OA
ATOM     22  C   UNL     1      -1.824   3.748 -25.544  0.00  0.00    +0.091 C 
ATOM     23  C   UNL     1      -3.487   3.277 -22.678  0.00  0.00    +0.168 A 
ENDROOT
BRANCH   1  25
ATOM     24  C   UNL     1      -6.035   2.625 -21.747  0.00  0.00    +0.277 C 
ATOM     25  O   UNL     1      -5.563   3.713 -22.152  0.00  0.00    -0.491 OA
ENDBRANCH   1  25
TORSDOF 1
ENDMDL
MODEL 4
REMARK VINA RESULT:   -10.743      2.058      4.933
REMARK INTER + INTRA:         -11.494
REMARK INTER:                 -11.378
REMARK INTRA:                  -0.116
REMARK UNBOUND:                -0.123
REMARK  Name = COc1ccc2c3c1O[C@]1(C)C(=O)C=C[C@]4(Br)[C@@H](C2)N(C)CC[C@]314        ZINC000253505035
REMARK  4 active torsions:
REMARK  status: ('A' for Active; 'I' for Inactive)
REMARK    1  A    between atoms: C_1  and  O_2
REMARK    2  A    between atoms: O_2  and  C_3
REMARK    3  A    between atoms: C_10  and  C_11
REMARK    4  A    between atoms: N_20  and  C_21
REMARK                            x       y       z     vdW  Elec       q    Type
REMARK                         _______ _______ _______ _____ _____    ______ ____
ROOT
ATOM      1  C   UNL     1      -3.455   3.242 -23.099  0.00  0.00    +0.162 A 
ATOM      2  C   UNL     1      -3.691   2.707 -21.976  0.00  0.00    +0.050 A 
ATOM      3  C   UNL     1      -2.769   2.164 -21.324  0.00  0.00    +0.008 A 
ATOM      4  C   UNL     1      -1.604   2.151 -21.784  0.00  0.00    -0.034 A 
ATOM      5  C   UNL     1      -1.345   2.679 -22.903  0.00  0.00    +0.014 A 
ATOM      6  C   UNL     1      -0.181   2.664 -23.360  0.00  0.00    +0.075 C 
ATOM      7  C   UNL     1       1.105   2.708 -23.980  0.00  0.00    +0.069 C 
ATOM      8  C   UNL     1       2.164   2.104 -23.267  0.00  0.00    +0.132 C 
ATOM      9  N   UNL     1       1.864   1.518 -22.021  0.00  0.00    +0.237 N 
ATOM     10  H   UNL     1       2.602   1.071 -21.476  0.00  0.00    +0.203 HD
ATOM     11  C   UNL     1       2.747   0.962 -21.328  0.00  0.00    +0.191 C 
ATOM     12  C   UNL     1       0.508   1.585 -21.585  0.00  0.00    +0.090 C 
ATOM     13  C   UNL     1       0.738   2.122 -22.708  0.00  0.00    +0.101 C 
ATOM     14 BR   UNL     1      -0.427   2.134 -22.243  0.00  0.00    -0.073 Br
ATOM     15  C   UNL     1       1.919   2.103 -23.164  0.00  0.00    +0.001 C 
ATOM     16  C   UNL     1       2.167   2.631 -24.276  0.00  0.00    +0.048 C 
ATOM     17  C   UNL     1       1.244   3.183 -24.947  0.00  0.00    +0.200 C 
ATOM     18  O   UNL     1       1.495   3.708 -26.055  0.00  0.00    -0.288 OA
ATOM     19  C   UNL     1       0.073   3.199 -24.489  0.00  0.00    +0.181 C 
ATOM     20  C   UNL     1       0.030   3.788 -25.597  0.00  0.00    +0.065 C 
ATOM     21  O   UNL     1      -1.366   3.621 -24.695  0.00  0.00    -0.473 OA
ATOM     22  C   UNL     1      -0.658   1.600 -21.126  0.00  0.00    +0.091 C 
ATOM     23  C   UNL     1      -2.274   3.227 -23.563  0.00  0.00    +0.168 A 
ENDROOT
BRANCH   1  25
ATOM     24  C   UNL     1      -5.555   3.747 -23.315  0.00  0.00    +0.277 C 
ATOM     25  O   UNL     1      -4.380   3.783 -23.747  0.00  0.00    -0.491 OA
ENDBRANCH   1  25
TORSDOF 1
ENDMDL
MODEL 5
REMARK VINA RESULT:    -9.997      3.184      6.929
REMARK INTER + INTRA:         -10.704
REMARK INTER:                 -10.579
REMARK INTRA:                  -0.124
REMARK UNBOUND:                -0.123
REMARK  Name = COc1ccc2c3c1O[C@]1(C)C(=O)C=C[C@]4(Br)[C@@H](C2)N(C)CC[C@]314        ZINC000253505035
REMARK  4 active torsions:
REMARK  status: ('A' for Active; 'I' for Inactive)
REMARK    1  A    between atoms: C_1  and  O_2
REMARK    2  A    between atoms: O_2  and  C_3
REMARK    3  A    between atoms: C_10  and  C_11
REMARK    4  A    between atoms: N_20  and  C_21
REMARK                            x       y       z     vdW  Elec       q    Type
REMARK                         _______ _______ _______ _____ _____    ______ ____
ROOT
ATOM      1  C   UNL     1      -0.865   3.056 -23.558  0.00  0.00    +0.162 A 
ATOM      2  C   UNL     1      -0.960   4.279 -23.869  0.00  0.00    +0.050 A 
ATOM      3  C   UNL     1       0.048   5.023 -23.845  0.00  0.00    +0.008 A 
ATOM      4  C   UNL     1       1.160   4.553 -23.511  0.00  0.00    -0.034 A 
ATOM      5  C   UNL     1       1.279   3.334 -23.196  0.00  0.00    +0.014 A 
ATOM      6  C   UNL     1       2.392   2.869 -22.863  0.00  0.00    +0.075 C 
ATOM      7  C   UNL     1       3.605   2.229 -22.468  0.00  0.00    +0.069 C 
ATOM      8  C   UNL     1       4.759   3.043 -22.433  0.00  0.00    +0.132 C 
ATOM      9  N   UNL     1       4.615   4.399 -22.785  0.00  0.00    +0.237 N 
ATOM     10  H   UNL     1       5.425   5.019 -22.772  0.00  0.00    +0.203 HD
ATOM     11  C   UNL     1       5.589   5.186 -22.779  0.00  0.00    +0.191 C 
ATOM     12  C   UNL     1       3.307   4.836 -23.151  0.00  0.00    +0.090 C 
ATOM     13  C   UNL     1       3.397   3.612 -22.840  0.00  0.00    +0.101 C 
ATOM     14 BR   UNL     1       2.286   4.086 -23.175  0.00  0.00    -0.073 Br
ATOM     15  C   UNL     1       4.526   3.148 -22.504  0.00  0.00    +0.001 C 
ATOM     16  C   UNL     1       4.635   1.936 -22.193  0.00  0.00    +0.048 C 
ATOM     17  C   UNL     1       3.623   1.173 -22.212  0.00  0.00    +0.200 C 
ATOM     18  O   UNL     1       3.736  -0.034 -21.901  0.00  0.00    -0.288 OA
ATOM     19  C   UNL     1       2.505   1.639 -22.547  0.00  0.00    +0.181 C 
ATOM     20  C   UNL     1       2.322   0.423 -22.293  0.00  0.00    +0.065 C 
ATOM     21  O   UNL     1       1.033   1.370 -22.776  0.00  0.00    -0.473 OA
ATOM     22  C   UNL     1       2.194   5.304 -23.484  0.00  0.00    +0.091 C 
ATOM     23  C   UNL     1       0.263   2.583 -23.220  0.00  0.00    +0.168 A 
ENDROOT
BRANCH   1  25
ATOM     24  C   UNL     1      -2.960   2.719 -23.101  0.00  0.00    +0.277 C 
ATOM     25  O   UNL     1      -1.876   2.317 -23.583  0.00  0.00    -0.491 OA
ENDBRANCH   1  25
TORSDOF 1
ENDMDL
MODEL 6
REMARK VINA RESULT:    -9.736      2.010      4.339
REMARK INTER + INTRA:         -10.428
REMARK INTER:                 -10.308
REMARK INTRA:                  -0.119
REMARK UNBOUND:                -0.123
REMARK  Name = COc1ccc2c3c1O[C@]1(C)C(=O)C=C[C@]4(Br)[C@@H](C2)N(C)CC[C@]314        ZINC000253505035
REMARK  4 active torsions:
REMARK  status: ('A' for Active; 'I' for Inactive)
REMARK    1  A    between atoms: C_1  and  O_2
REMARK    2  A    between atoms: O_2  and  C_3
REMARK    3  A    between atoms: C_10  and  C_11
REMARK    4  A    between atoms: N_20  and  C_21
REMARK                            x       y       z     vdW  Elec       q    Type
REMARK                         _______ _______ _______ _____ _____    ______ ____
ROOT
ATOM      1  C   UNL     1      -5.103   3.235 -22.088  0.00  0.00    +0.162 A 
ATOM      2  C   UNL     1      -4.593   3.176 -20.931  0.00  0.00    +0.050 A 
ATOM      3  C   UNL     1      -3.349   3.202 -20.782  0.00  0.00    +0.008 A 
ATOM      4  C   UNL     1      -2.603   3.287 -21.785  0.00  0.00    -0.034 A 
ATOM      5  C   UNL     1      -3.090   3.346 -22.950  0.00  0.00    +0.014 A 
ATOM      6  C   UNL     1      -2.342   3.430 -23.949  0.00  0.00    +0.075 C 
ATOM      7  C   UNL     1      -1.590   3.528 -25.159  0.00  0.00    +0.069 C 
ATOM      8  C   UNL     1      -0.185   3.559 -25.022  0.00  0.00    +0.132 C 
ATOM      9  N   UNL     1       0.347   3.492 -23.719  0.00  0.00    +0.237 N 
ATOM     10  H   UNL     1       1.358   3.512 -23.578  0.00  0.00    +0.203 HD
ATOM     11  C   UNL     1       1.582   3.514 -23.513  0.00  0.00    +0.191 C 
ATOM     12  C   UNL     1      -0.585   3.398 -22.644  0.00  0.00    +0.090 C 
ATOM     13  C   UNL     1      -1.101   3.456 -23.798  0.00  0.00    +0.101 C 
ATOM     14 BR   UNL     1      -1.844   3.372 -22.793  0.00  0.00    -0.073 Br
ATOM     15  C   UNL     1      -0.338   3.541 -24.805  0.00  0.00    +0.001 C 
ATOM     16  C   UNL     1      -0.830   3.600 -25.959  0.00  0.00    +0.048 C 
ATOM     17  C   UNL     1      -2.087   3.575 -26.125  0.00  0.00    +0.200 C 
ATOM     18  O   UNL     1      -2.574   3.633 -27.276  0.00  0.00    -0.288 OA
ATOM     19  C   UNL     1      -2.840   3.490 -25.121  0.00  0.00    +0.181 C 
ATOM     20  C   UNL     1      -3.590   3.532 -26.127  0.00  0.00    +0.065 C 
ATOM     21  O   UNL     1      -4.260   3.417 -24.601  0.00  0.00    -0.473 OA
ATOM     22  C   UNL     1      -1.333   3.314 -21.642  0.00  0.00    +0.091 C 
ATOM     23  C   UNL     1      -4.345   3.320 -23.102  0.00  0.00    +0.168 A 
ENDROOT
BRANCH   1  25
ATOM     24  C   UNL     1      -7.062   2.603 -21.401  0.00  0.00    +0.277 C 
ATOM     25  O   UNL     1      -6.346   3.208 -22.232  0.00  0.00    -0.491 OA
ENDBRANCH   1  25
TORSDOF 1
ENDMDL
MODEL 7
REMARK VINA RESULT:    -9.576      1.868      2.993
REMARK INTER + INTRA:         -10.259
REMARK INTER:                 -10.139
REMARK INTRA:                  -0.120
REMARK UNBOUND:                -0.123
REMARK  Name = COc1ccc2c3c1O[C@]1(C)C(=O)C=C[C@]4(Br)[C@@H](C2)N(C)CC[C@]314        ZINC000253505035
REMARK  4 active torsions:
REMARK  status: ('A' for Active; 'I' for Inactive)
REMARK    1  A    between atoms: C_1  and  O_2
REMARK    2  A    between atoms: O_2  and  C_3
REMARK    3  A    between atoms: C_10  and  C_11
REMARK    4  A    between atoms: N_20  and  C_21
REMARK                            x       y       z     vdW  Elec       q    Type
REMARK                         _______ _______ _______ _____ _____    ______ ____
ROOT
ATOM      1  C   UNL     1       3.343   1.995 -22.603  0.00  0.00    +0.162 A 
ATOM      2  C   UNL     1       3.306   1.531 -21.426  0.00  0.00    +0.050 A 
ATOM      3  C   UNL     1       2.214   1.413 -20.823  0.00  0.00    +0.008 A 
ATOM      4  C   UNL     1       1.150   1.757 -21.387  0.00  0.00    -0.034 A 
ATOM      5  C   UNL     1       1.163   2.223 -22.562  0.00  0.00    +0.014 A 
ATOM      6  C   UNL     1       0.098   2.566 -23.123  0.00  0.00    +0.075 C 
ATOM      7  C   UNL     1      -1.048   2.988 -23.861  0.00  0.00    +0.069 C 
ATOM      8  C   UNL     1      -2.294   2.867 -23.206  0.00  0.00    +0.132 C 
ATOM      9  N   UNL     1      -2.297   2.347 -21.897  0.00  0.00    +0.237 N 
ATOM     10  H   UNL     1      -3.176   2.243 -21.390  0.00  0.00    +0.203 HD
ATOM     11  C   UNL     1      -3.359   2.208 -21.248  0.00  0.00    +0.191 C 
ATOM     12  C   UNL     1      -1.034   1.984 -21.342  0.00  0.00    +0.090 C 
ATOM     13  C   UNL     1      -0.990   2.448 -22.520  0.00  0.00    +0.101 C 
ATOM     14 BR   UNL     1       0.072   2.102 -21.951  0.00  0.00    -0.073 Br
ATOM     15  C   UNL     1      -2.072   2.792 -23.081  0.00  0.00    +0.001 C 
ATOM     16  C   UNL     1      -2.049   3.255 -24.248  0.00  0.00    +0.048 C 
ATOM     17  C   UNL     1      -0.952   3.379 -24.871  0.00  0.00    +0.200 C 
ATOM     18  O   UNL     1      -0.934   3.840 -26.034  0.00  0.00    -0.288 OA
ATOM     19  C   UNL     1       0.119   3.035 -24.308  0.00  0.00    +0.181 C 
ATOM     20  C   UNL     1       0.434   3.454 -25.449  0.00  0.00    +0.065 C 
ATOM     21  O   UNL     1       1.624   2.907 -24.411  0.00  0.00    -0.473 OA
ATOM     22  C   UNL     1       0.032   1.641 -20.780  0.00  0.00    +0.091 C 
ATOM     23  C   UNL     1       2.264   2.343 -23.173  0.00  0.00    +0.168 A 
ENDROOT
BRANCH   1  25
ATOM     24  C   UNL     1       5.484   2.347 -22.557  0.00  0.00    +0.277 C 
ATOM     25  O   UNL     1       4.436   2.111 -23.202  0.00  0.00    -0.491 OA
ENDBRANCH   1  25
TORSDOF 1
ENDMDL
MODEL 8
REMARK VINA RESULT:    -9.090      2.602      5.792
REMARK INTER + INTRA:          -9.744
REMARK INTER:                  -9.621
REMARK INTRA:                  -0.123
REMARK UNBOUND:                -0.123
REMARK  Name = COc1ccc2c3c1O[C@]1(C)C(=O)C=C[C@]4(Br)[C@@H](C2)N(C)CC[C@]314        ZINC000253505035
REMARK  4 active torsions:
REMARK  status: ('A' for Active; 'I' for Inactive)
REMARK    1  A    between atoms: C_1  and  O_2
REMARK    2  A    between atoms: O_2  and  C_3
REMARK    3  A    between atoms: C_10  and  C_11
REMARK    4  A    between atoms: N_20  and  C_21
REMARK                            x       y       z     vdW  Elec       q    Type
REMARK                         _______ _______ _______ _____ _____    ______ ____
ROOT
ATOM      1  C   UNL     1      -1.937   3.915 -23.539  0.00  0.00    +0.162 A 
ATOM      2  C   UNL     1      -2.509   2.868 -23.115  0.00  0.00    +0.050 A 
ATOM      3  C   UNL     1      -1.842   1.948 -22.587  0.00  0.00    +0.008 A 
ATOM      4  C   UNL     1      -0.599   2.063 -22.478  0.00  0.00    -0.034 A 
ATOM      5  C   UNL     1      -0.007   3.100 -22.894  0.00  0.00    +0.014 A 
ATOM      6  C   UNL     1       1.235   3.211 -22.783  0.00  0.00    +0.075 C 
ATOM      7  C   UNL     1       2.640   3.449 -22.711  0.00  0.00    +0.069 C 
ATOM      8  C   UNL     1       3.418   2.428 -22.121  0.00  0.00    +0.132 C 
ATOM      9  N   UNL     1       2.748   1.278 -21.660  0.00  0.00    +0.237 N 
ATOM     10  H   UNL     1       3.274   0.519 -21.228  0.00  0.00    +0.203 HD
ATOM     11  C   UNL     1       3.365   0.329 -21.125  0.00  0.00    +0.191 C 
ATOM     12  C   UNL     1       1.332   1.243 -21.831  0.00  0.00    +0.090 C 
ATOM     13  C   UNL     1       1.898   2.292 -22.257  0.00  0.00    +0.101 C 
ATOM     14 BR   UNL     1       0.655   2.173 -22.364  0.00  0.00    -0.073 Br
ATOM     15  C   UNL     1       3.155   2.398 -22.141  0.00  0.00    +0.001 C 
ATOM     16  C   UNL     1       3.735   3.431 -22.558  0.00  0.00    +0.048 C 
ATOM     17  C   UNL     1       3.073   4.370 -23.094  0.00  0.00    +0.200 C 
ATOM     18  O   UNL     1       3.655   5.398 -23.508  0.00  0.00    -0.288 OA
ATOM     19  C   UNL     1       1.825   4.259 -23.206  0.00  0.00    +0.181 C 
ATOM     20  C   UNL     1       2.130   5.373 -23.698  0.00  0.00    +0.065 C 
ATOM     21  O   UNL     1       0.531   4.887 -23.677  0.00  0.00    -0.473 OA
ATOM     22  C   UNL     1       0.089   1.130 -21.941  0.00  0.00    +0.091 C 
ATOM     23  C   UNL     1      -0.678   4.029 -23.427  0.00  0.00    +0.168 A 
ENDROOT
BRANCH   1  25
ATOM     24  C   UNL     1      -3.553   4.554 -24.840  0.00  0.00    +0.277 C 
ATOM     25  O   UNL     1      -2.608   4.832 -24.066  0.00  0.00    -0.491 OA
ENDBRANCH   1  25
TORSDOF 1
ENDMDL
MODEL 9
REMARK VINA RESULT:    -9.014      2.846      4.322
REMARK INTER + INTRA:          -9.664
REMARK INTER:                  -9.531
REMARK INTRA:                  -0.133
REMARK UNBOUND:                -0.123
REMARK  Name = COc1ccc2c3c1O[C@]1(C)C(=O)C=C[C@]4(Br)[C@@H](C2)N(C)CC[C@]314        ZINC000253505035
REMARK  4 active torsions:
REMARK  status: ('A' for Active; 'I' for Inactive)
REMARK    1  A    between atoms: C_1  and  O_2
REMARK    2  A    between atoms: O_2  and  C_3
REMARK    3  A    between atoms: C_10  and  C_11
REMARK    4  A    between atoms: N_20  and  C_21
REMARK                            x       y       z     vdW  Elec       q    Type
REMARK                         _______ _______ _______ _____ _____    ______ ____
ROOT
ATOM      1  C   UNL     1       4.742   2.738 -23.250  0.00  0.00    +0.162 A 
ATOM      2  C   UNL     1       4.971   2.151 -22.152  0.00  0.00    +0.050 A 
ATOM      3  C   UNL     1       4.026   1.724 -21.448  0.00  0.00    +0.008 A 
ATOM      4  C   UNL     1       2.845   1.877 -21.834  0.00  0.00    -0.034 A 
ATOM      5  C   UNL     1       2.591   2.460 -22.927  0.00  0.00    +0.014 A 
ATOM      6  C   UNL     1       1.409   2.611 -23.309  0.00  0.00    +0.075 C 
ATOM      7  C   UNL     1       0.106   2.840 -23.844  0.00  0.00    +0.069 C 
ATOM      8  C   UNL     1      -0.979   2.369 -23.073  0.00  0.00    +0.132 C 
ATOM      9  N   UNL     1      -0.686   1.722 -21.857  0.00  0.00    +0.237 N 
ATOM     10  H   UNL     1      -1.442   1.367 -21.271  0.00  0.00    +0.203 HD
ATOM     11  C   UNL     1      -1.591   1.275 -21.116  0.00  0.00    +0.191 C 
ATOM     12  C   UNL     1       0.692   1.597 -21.507  0.00  0.00    +0.090 C 
ATOM     13  C   UNL     1       0.468   2.184 -22.606  0.00  0.00    +0.101 C 
ATOM     14 BR   UNL     1       1.649   2.029 -22.217  0.00  0.00    -0.073 Br
ATOM     15  C   UNL     1      -0.731   2.333 -22.986  0.00  0.00    +0.001 C 
ATOM     16  C   UNL     1      -0.973   2.913 -24.073  0.00  0.00    +0.048 C 
ATOM     17  C   UNL     1      -0.027   3.351 -24.795  0.00  0.00    +0.200 C 
ATOM     18  O   UNL     1      -0.272   3.928 -25.877  0.00  0.00    -0.288 OA
ATOM     19  C   UNL     1       1.162   3.199 -24.412  0.00  0.00    +0.181 C 
ATOM     20  C   UNL     1       1.215   3.801 -25.513  0.00  0.00    +0.065 C 
ATOM     21  O   UNL     1       2.629   3.428 -24.704  0.00  0.00    -0.473 OA
ATOM     22  C   UNL     1       1.874   1.445 -21.123  0.00  0.00    +0.091 C 
ATOM     23  C   UNL     1       3.543   2.892 -23.638  0.00  0.00    +0.168 A 
ENDROOT
BRANCH   1  25
ATOM     24  C   UNL     1       6.463   4.037 -23.494  0.00  0.00    +0.277 C 
ATOM     25  O   UNL     1       5.689   3.163 -23.949  0.00  0.00    -0.491 OA
ENDBRANCH   1  25
TORSDOF 1
ENDMDL
