MODEL 1
REMARK VINA RESULT:   -10.986      0.000      0.000
REMARK INTER + INTRA:         -12.065
REMARK INTER:                 -11.953
REMARK INTRA:                  -0.112
REMARK UNBOUND:                -0.116
REMARK  Name = COc1ccc2c3c1O[C@@]1(C)[C@H](O)[C@H](Cl)C=C4[C@@H](C2)N(C)CC[C@@]431  ZINC000100393466
REMARK  5 active torsions:
REMARK  status: ('A' for Active; 'I' for Inactive)
REMARK    1  A    between atoms: C_1  and  O_2
REMARK    2  A    between atoms: O_2  and  C_3
REMARK    3  A    between atoms: C_10  and  C_11
REMARK    4  A    between atoms: C_12  and  O_13
REMARK    5  A    between atoms: N_20  and  C_21
REMARK                            x       y       z     vdW  Elec       q    Type
REMARK                         _______ _______ _______ _____ _____    ______ ____
ROOT
ATOM      1  C   UNL     1       1.634   2.273 -23.783  0.00  0.00    +0.162 A 
ATOM      2  C   UNL     1       1.920   1.802 -22.642  0.00  0.00    +0.050 A 
ATOM      3  C   UNL     1       1.034   1.683 -21.764  0.00  0.00    +0.008 A 
ATOM      4  C   UNL     1      -0.147   2.030 -22.014  0.00  0.00    -0.034 A 
ATOM      5  C   UNL     1      -0.451   2.501 -23.145  0.00  0.00    +0.016 A 
ATOM      6  C   UNL     1      -1.629   2.847 -23.391  0.00  0.00    +0.072 C 
ATOM      7  C   UNL     1      -2.932   3.273 -23.786  0.00  0.00    +0.071 C 
ATOM      8  C   UNL     1      -3.952   3.150 -22.815  0.00  0.00    +0.133 C 
ATOM      9  N   UNL     1      -3.595   2.621 -21.555  0.00  0.00    +0.239 N 
ATOM     10  H   UNL     1      -4.290   2.509 -20.816  0.00  0.00    +0.204 HD
ATOM     11  C   UNL     1      -4.438   2.479 -20.640  0.00  0.00    +0.191 C 
ATOM     12  C   UNL     1      -2.227   2.257 -21.374  0.00  0.00    +0.096 C 
ATOM     13  C   UNL     1      -2.516   2.728 -22.514  0.00  0.00    -0.010 C 
ATOM     14  C   UNL     1      -3.708   3.078 -22.765  0.00  0.00    +0.000 C 
ATOM     15  C   UNL     1      -4.000   3.545 -23.891  0.00  0.00    +0.136 C 
ATOM     16 CL   UNL     1      -5.179   3.890 -24.136  0.00  0.00    -0.115 Cl
ATOM     17  C   UNL     1      -3.109   3.668 -24.783  0.00  0.00    +0.180 C 
ATOM     18  C   UNL     1      -1.931   3.322 -24.535  0.00  0.00    +0.149 C 
ATOM     19  C   UNL     1      -1.938   3.746 -25.716  0.00  0.00    +0.060 C 
ATOM     20  O   UNL     1      -0.513   3.195 -25.047  0.00  0.00    -0.478 OA
ATOM     21  C   UNL     1      -1.050   1.910 -21.124  0.00  0.00    +0.094 C 
ATOM     22  C   UNL     1       0.441   2.624 -24.034  0.00  0.00    +0.167 A 
ENDROOT
BRANCH   1  24
ATOM     23  C   UNL     1       3.719   2.150 -24.376  0.00  0.00    +0.277 C 
ATOM     24  O   UNL     1       2.522   2.392 -24.659  0.00  0.00    -0.491 OA
ENDBRANCH   1  24
BRANCH  17  25
ATOM     25  O   UNL     1      -3.406   4.135 -25.908  0.00  0.00    -0.386 OA
ATOM     26  H   UNL     1      -3.429   5.103 -25.860  0.00  0.00    +0.210 HD
ENDBRANCH  17  25
TORSDOF 2
ENDMDL
MODEL 2
REMARK VINA RESULT:   -10.909      1.877      3.096
REMARK INTER + INTRA:         -11.982
REMARK INTER:                 -11.833
REMARK INTRA:                  -0.149
REMARK UNBOUND:                -0.116
REMARK  Name = COc1ccc2c3c1O[C@@]1(C)[C@H](O)[C@H](Cl)C=C4[C@@H](C2)N(C)CC[C@@]431  ZINC000100393466
REMARK  5 active torsions:
REMARK  status: ('A' for Active; 'I' for Inactive)
REMARK    1  A    between atoms: C_1  and  O_2
REMARK    2  A    between atoms: O_2  and  C_3
REMARK    3  A    between atoms: C_10  and  C_11
REMARK    4  A    between atoms: C_12  and  O_13
REMARK    5  A    between atoms: N_20  and  C_21
REMARK                            x       y       z     vdW  Elec       q    Type
REMARK                         _______ _______ _______ _____ _____    ______ ____
ROOT
ATOM      1  C   UNL     1       1.316   3.098 -23.294  0.00  0.00    +0.162 A 
ATOM      2  C   UNL     1       1.543   3.239 -24.532  0.00  0.00    +0.050 A 
ATOM      3  C   UNL     1       0.596   3.390 -25.338  0.00  0.00    +0.008 A 
ATOM      4  C   UNL     1      -0.588   3.402 -24.919  0.00  0.00    -0.034 A 
ATOM      5  C   UNL     1      -0.834   3.264 -23.688  0.00  0.00    +0.016 A 
ATOM      6  C   UNL     1      -2.016   3.277 -23.273  0.00  0.00    +0.072 C 
ATOM      7  C   UNL     1      -3.315   3.275 -22.684  0.00  0.00    +0.071 C 
ATOM      8  C   UNL     1      -4.404   3.443 -23.570  0.00  0.00    +0.133 C 
ATOM      9  N   UNL     1      -4.111   3.597 -24.944  0.00  0.00    +0.239 N 
ATOM     10  H   UNL     1      -4.857   3.722 -25.629  0.00  0.00    +0.204 HD
ATOM     11  C   UNL     1      -5.017   3.751 -25.794  0.00  0.00    +0.191 C 
ATOM     12  C   UNL     1      -2.734   3.568 -25.316  0.00  0.00    +0.096 C 
ATOM     13  C   UNL     1      -2.964   3.428 -24.078  0.00  0.00    -0.010 C 
ATOM     14  C   UNL     1      -4.159   3.440 -23.655  0.00  0.00    +0.000 C 
ATOM     15  C   UNL     1      -4.393   3.302 -22.432  0.00  0.00    +0.136 C 
ATOM     16 CL   UNL     1      -5.575   3.315 -22.018  0.00  0.00    -0.115 Cl
ATOM     17  C   UNL     1      -3.439   3.149 -21.612  0.00  0.00    +0.180 C 
ATOM     18  C   UNL     1      -2.258   3.136 -22.029  0.00  0.00    +0.149 C 
ATOM     19  C   UNL     1      -2.200   2.980 -20.786  0.00  0.00    +0.060 C 
ATOM     20  O   UNL     1      -0.792   3.013 -21.679  0.00  0.00    -0.478 OA
ATOM     21  C   UNL     1      -1.554   3.556 -25.736  0.00  0.00    +0.094 C 
ATOM     22  C   UNL     1       0.119   3.111 -22.871  0.00  0.00    +0.167 A 
ENDROOT
BRANCH   1  24
ATOM     23  C   UNL     1       2.552   1.803 -22.066  0.00  0.00    +0.277 C 
ATOM     24  O   UNL     1       2.265   2.947 -22.489  0.00  0.00    -0.491 OA
ENDBRANCH   1  24
BRANCH  17  25
ATOM     25  O   UNL     1      -3.678   3.011 -20.389  0.00  0.00    -0.386 OA
ATOM     26  H   UNL     1      -4.612   2.780 -20.266  0.00  0.00    +0.210 HD
ENDBRANCH  17  25
TORSDOF 2
ENDMDL
MODEL 3
REMARK VINA RESULT:   -10.769      2.368      4.939
REMARK INTER + INTRA:         -11.829
REMARK INTER:                 -11.717
REMARK INTRA:                  -0.112
REMARK UNBOUND:                -0.116
REMARK  Name = COc1ccc2c3c1O[C@@]1(C)[C@H](O)[C@H](Cl)C=C4[C@@H](C2)N(C)CC[C@@]431  ZINC000100393466
REMARK  5 active torsions:
REMARK  status: ('A' for Active; 'I' for Inactive)
REMARK    1  A    between atoms: C_1  and  O_2
REMARK    2  A    between atoms: O_2  and  C_3
REMARK    3  A    between atoms: C_10  and  C_11
REMARK    4  A    between atoms: C_12  and  O_13
REMARK    5  A    between atoms: N_20  and  C_21
REMARK                            x       y       z     vdW  Elec       q    Type
REMARK                         _______ _______ _______ _____ _____    ______ ____
ROOT
ATOM      1  C   UNL     1      -3.474   3.270 -23.152  0.00  0.00    +0.162 A 
ATOM      2  C   UNL     1      -3.729   2.800 -22.003  0.00  0.00    +0.050 A 
ATOM      3  C   UNL     1      -2.821   2.279 -21.314  0.00  0.00    +0.008 A 
ATOM      4  C   UNL     1      -1.649   2.221 -21.763  0.00  0.00    -0.034 A 
ATOM      5  C   UNL     1      -1.376   2.684 -22.905  0.00  0.00    +0.016 A 
ATOM      6  C   UNL     1      -0.206   2.625 -23.349  0.00  0.00    +0.072 C 
ATOM      7  C   UNL     1       1.083   2.615 -23.959  0.00  0.00    +0.071 C 
ATOM      8  C   UNL     1       2.127   2.033 -23.205  0.00  0.00    +0.133 C 
ATOM      9  N   UNL     1       1.805   1.520 -21.929  0.00  0.00    +0.239 N 
ATOM     10  H   UNL     1       2.518   1.089 -21.340  0.00  0.00    +0.204 HD
ATOM     11  C   UNL     1       2.671   0.988 -21.197  0.00  0.00    +0.191 C 
ATOM     12  C   UNL     1       0.444   1.635 -21.513  0.00  0.00    +0.096 C 
ATOM     13  C   UNL     1       0.703   2.104 -22.662  0.00  0.00    -0.010 C 
ATOM     14  C   UNL     1       1.885   2.046 -23.114  0.00  0.00    +0.000 C 
ATOM     15  C   UNL     1       2.147   2.508 -24.248  0.00  0.00    +0.136 C 
ATOM     16 CL   UNL     1       3.316   2.448 -24.692  0.00  0.00    -0.115 Cl
ATOM     17  C   UNL     1       1.233   3.036 -24.949  0.00  0.00    +0.180 C 
ATOM     18  C   UNL     1       0.064   3.094 -24.504  0.00  0.00    +0.149 C 
ATOM     19  C   UNL     1       0.039   3.623 -25.642  0.00  0.00    +0.060 C 
ATOM     20  O   UNL     1      -1.365   3.528 -24.746  0.00  0.00    -0.478 OA
ATOM     21  C   UNL     1      -0.723   1.692 -21.065  0.00  0.00    +0.094 C 
ATOM     22  C   UNL     1      -2.290   3.211 -23.603  0.00  0.00    +0.167 A 
ENDROOT
BRANCH   1  24
ATOM     23  C   UNL     1      -5.568   3.771 -23.429  0.00  0.00    +0.277 C 
ATOM     24  O   UNL     1      -4.384   3.791 -23.839  0.00  0.00    -0.491 OA
ENDBRANCH   1  24
BRANCH  17  25
ATOM     25  O   UNL     1       1.499   3.497 -26.085  0.00  0.00    -0.386 OA
ATOM     26  H   UNL     1       2.232   4.128 -26.014  0.00  0.00    +0.210 HD
ENDBRANCH  17  25
TORSDOF 2
ENDMDL
MODEL 4
REMARK VINA RESULT:   -10.666      2.640      5.608
REMARK INTER + INTRA:         -11.717
REMARK INTER:                 -11.645
REMARK INTRA:                  -0.072
REMARK UNBOUND:                -0.116
REMARK  Name = COc1ccc2c3c1O[C@@]1(C)[C@H](O)[C@H](Cl)C=C4[C@@H](C2)N(C)CC[C@@]431  ZINC000100393466
REMARK  5 active torsions:
REMARK  status: ('A' for Active; 'I' for Inactive)
REMARK    1  A    between atoms: C_1  and  O_2
REMARK    2  A    between atoms: O_2  and  C_3
REMARK    3  A    between atoms: C_10  and  C_11
REMARK    4  A    between atoms: C_12  and  O_13
REMARK    5  A    between atoms: N_20  and  C_21
REMARK                            x       y       z     vdW  Elec       q    Type
REMARK                         _______ _______ _______ _____ _____    ______ ____
ROOT
ATOM      1  C   UNL     1      -4.634   3.705 -23.071  0.00  0.00    +0.162 A 
ATOM      2  C   UNL     1      -4.817   4.143 -24.246  0.00  0.00    +0.050 A 
ATOM      3  C   UNL     1      -3.878   4.147 -25.075  0.00  0.00    +0.008 A 
ATOM      4  C   UNL     1      -2.746   3.714 -24.743  0.00  0.00    -0.034 A 
ATOM      5  C   UNL     1      -2.545   3.274 -23.577  0.00  0.00    +0.016 A 
ATOM      6  C   UNL     1      -1.416   2.843 -23.249  0.00  0.00    +0.072 C 
ATOM      7  C   UNL     1      -0.178   2.328 -22.761  0.00  0.00    +0.071 C 
ATOM      8  C   UNL     1       0.900   2.321 -23.676  0.00  0.00    +0.133 C 
ATOM      9  N   UNL     1       0.658   2.817 -24.975  0.00  0.00    +0.239 N 
ATOM     10  H   UNL     1       1.399   2.836 -25.677  0.00  0.00    +0.204 HD
ATOM     11  C   UNL     1       1.558   2.846 -25.845  0.00  0.00    +0.191 C 
ATOM     12  C   UNL     1      -0.662   3.285 -25.251  0.00  0.00    +0.096 C 
ATOM     13  C   UNL     1      -0.476   2.846 -24.077  0.00  0.00    -0.010 C 
ATOM     14  C   UNL     1       0.666   2.410 -23.742  0.00  0.00    +0.000 C 
ATOM     15  C   UNL     1       0.856   1.974 -22.583  0.00  0.00    +0.136 C 
ATOM     16 CL   UNL     1       1.986   1.544 -22.256  0.00  0.00    -0.115 Cl
ATOM     17  C   UNL     1      -0.090   1.968 -21.740  0.00  0.00    +0.180 C 
ATOM     18  C   UNL     1      -1.219   2.399 -22.070  0.00  0.00    +0.149 C 
ATOM     19  C   UNL     1      -1.312   2.033 -20.873  0.00  0.00    +0.060 C 
ATOM     20  O   UNL     1      -2.646   2.668 -21.647  0.00  0.00    -0.478 OA
ATOM     21  C   UNL     1      -1.789   3.717 -25.584  0.00  0.00    +0.094 C 
ATOM     22  C   UNL     1      -3.491   3.268 -22.737  0.00  0.00    +0.167 A 
ENDROOT
BRANCH   1  24
ATOM     23  C   UNL     1      -5.965   2.621 -21.740  0.00  0.00    +0.277 C 
ATOM     24  O   UNL     1      -5.575   3.702 -22.243  0.00  0.00    -0.491 OA
ENDBRANCH   1  24
BRANCH  17  25
ATOM     25  O   UNL     1       0.104   1.531 -20.581  0.00  0.00    -0.386 OA
ATOM     26  H   UNL     1       0.572   2.201 -20.057  0.00  0.00    +0.210 HD
ENDBRANCH  17  25
TORSDOF 2
ENDMDL
MODEL 5
REMARK VINA RESULT:   -10.066      3.477      6.396
REMARK INTER + INTRA:         -11.065
REMARK INTER:                 -10.936
REMARK INTRA:                  -0.129
REMARK UNBOUND:                -0.116
REMARK  Name = COc1ccc2c3c1O[C@@]1(C)[C@H](O)[C@H](Cl)C=C4[C@@H](C2)N(C)CC[C@@]431  ZINC000100393466
REMARK  5 active torsions:
REMARK  status: ('A' for Active; 'I' for Inactive)
REMARK    1  A    between atoms: C_1  and  O_2
REMARK    2  A    between atoms: O_2  and  C_3
REMARK    3  A    between atoms: C_10  and  C_11
REMARK    4  A    between atoms: C_12  and  O_13
REMARK    5  A    between atoms: N_20  and  C_21
REMARK                            x       y       z     vdW  Elec       q    Type
REMARK                         _______ _______ _______ _____ _____    ______ ____
ROOT
ATOM      1  C   UNL     1      -1.287   3.288 -23.368  0.00  0.00    +0.162 A 
ATOM      2  C   UNL     1      -1.360   4.527 -23.625  0.00  0.00    +0.050 A 
ATOM      3  C   UNL     1      -0.327   5.236 -23.635  0.00  0.00    +0.008 A 
ATOM      4  C   UNL     1       0.791   4.717 -23.390  0.00  0.00    -0.034 A 
ATOM      5  C   UNL     1       0.884   3.485 -23.132  0.00  0.00    +0.016 A 
ATOM      6  C   UNL     1       2.000   2.971 -22.888  0.00  0.00    +0.072 C 
ATOM      7  C   UNL     1       3.211   2.276 -22.595  0.00  0.00    +0.071 C 
ATOM      8  C   UNL     1       4.393   3.051 -22.600  0.00  0.00    +0.133 C 
ATOM      9  N   UNL     1       4.272   4.428 -22.891  0.00  0.00    +0.239 N 
ATOM     10  H   UNL     1       5.092   5.035 -22.908  0.00  0.00    +0.204 HD
ATOM     11  C   UNL     1       5.269   5.184 -22.916  0.00  0.00    +0.191 C 
ATOM     12  C   UNL     1       2.957   4.917 -23.155  0.00  0.00    +0.096 C 
ATOM     13  C   UNL     1       3.034   3.679 -22.898  0.00  0.00    -0.010 C 
ATOM     14  C   UNL     1       4.162   3.156 -22.650  0.00  0.00    +0.000 C 
ATOM     15  C   UNL     1       4.244   1.933 -22.395  0.00  0.00    +0.136 C 
ATOM     16 CL   UNL     1       5.360   1.420 -22.151  0.00  0.00    -0.115 Cl
ATOM     17  C   UNL     1       3.203   1.211 -22.383  0.00  0.00    +0.180 C 
ATOM     18  C   UNL     1       2.087   1.726 -22.627  0.00  0.00    +0.149 C 
ATOM     19  C   UNL     1       1.878   0.508 -22.410  0.00  0.00    +0.060 C 
ATOM     20  O   UNL     1       0.597   1.512 -22.773  0.00  0.00    -0.478 OA
ATOM     21  C   UNL     1       1.844   5.435 -23.400  0.00  0.00    +0.094 C 
ATOM     22  C   UNL     1      -0.157   2.767 -23.120  0.00  0.00    +0.167 A 
ENDROOT
BRANCH   1  24
ATOM     23  C   UNL     1      -3.258   2.853 -22.569  0.00  0.00    +0.277 C 
ATOM     24  O   UNL     1      -2.322   2.582 -23.358  0.00  0.00    -0.491 OA
ENDBRANCH   1  24
BRANCH  17  25
ATOM     25  O   UNL     1       3.289  -0.013 -22.127  0.00  0.00    -0.386 OA
ATOM     26  H   UNL     1       2.692  -0.234 -21.396  0.00  0.00    +0.210 HD
ENDBRANCH  17  25
TORSDOF 2
ENDMDL
MODEL 6
REMARK VINA RESULT:    -9.527      1.725      2.753
REMARK INTER + INTRA:         -10.478
REMARK INTER:                 -10.359
REMARK INTRA:                  -0.119
REMARK UNBOUND:                -0.116
REMARK  Name = COc1ccc2c3c1O[C@@]1(C)[C@H](O)[C@H](Cl)C=C4[C@@H](C2)N(C)CC[C@@]431  ZINC000100393466
REMARK  5 active torsions:
REMARK  status: ('A' for Active; 'I' for Inactive)
REMARK    1  A    between atoms: C_1  and  O_2
REMARK    2  A    between atoms: O_2  and  C_3
REMARK    3  A    between atoms: C_10  and  C_11
REMARK    4  A    between atoms: C_12  and  O_13
REMARK    5  A    between atoms: N_20  and  C_21
REMARK                            x       y       z     vdW  Elec       q    Type
REMARK                         _______ _______ _______ _____ _____    ______ ____
ROOT
ATOM      1  C   UNL     1       3.074   1.647 -21.390  0.00  0.00    +0.162 A 
ATOM      2  C   UNL     1       2.522   1.279 -20.311  0.00  0.00    +0.050 A 
ATOM      3  C   UNL     1       1.277   1.341 -20.181  0.00  0.00    +0.008 A 
ATOM      4  C   UNL     1       0.569   1.769 -21.126  0.00  0.00    -0.034 A 
ATOM      5  C   UNL     1       1.101   2.140 -22.209  0.00  0.00    +0.016 A 
ATOM      6  C   UNL     1       0.392   2.567 -23.149  0.00  0.00    +0.072 C 
ATOM      7  C   UNL     1      -0.309   3.069 -24.286  0.00  0.00    +0.071 C 
ATOM      8  C   UNL     1      -1.715   3.149 -24.168  0.00  0.00    +0.133 C 
ATOM      9  N   UNL     1      -2.294   2.731 -22.949  0.00  0.00    +0.239 N 
ATOM     10  H   UNL     1      -3.304   2.767 -22.808  0.00  0.00    +0.204 HD
ATOM     11  C   UNL     1      -3.532   2.770 -22.763  0.00  0.00    +0.191 C 
ATOM     12  C   UNL     1      -1.402   2.261 -21.940  0.00  0.00    +0.096 C 
ATOM     13  C   UNL     1      -0.852   2.629 -23.021  0.00  0.00    -0.010 C 
ATOM     14  C   UNL     1      -1.567   3.061 -23.974  0.00  0.00    +0.000 C 
ATOM     15  C   UNL     1      -1.030   3.427 -25.045  0.00  0.00    +0.136 C 
ATOM     16 CL   UNL     1      -1.740   3.853 -25.985  0.00  0.00    -0.115 Cl
ATOM     17  C   UNL     1       0.228   3.367 -25.182  0.00  0.00    +0.180 C 
ATOM     18  C   UNL     1       0.936   2.940 -24.241  0.00  0.00    +0.149 C 
ATOM     19  C   UNL     1       1.721   3.230 -25.175  0.00  0.00    +0.060 C 
ATOM     20  O   UNL     1       2.329   2.623 -23.745  0.00  0.00    -0.478 OA
ATOM     21  C   UNL     1      -0.697   1.833 -20.997  0.00  0.00    +0.094 C 
ATOM     22  C   UNL     1       2.357   2.079 -22.344  0.00  0.00    +0.167 A 
ENDROOT
BRANCH   1  24
ATOM     23  C   UNL     1       4.953   0.625 -21.018  0.00  0.00    +0.277 C 
ATOM     24  O   UNL     1       4.319   1.584 -21.517  0.00  0.00    -0.491 OA
ENDBRANCH   1  24
BRANCH  17  25
ATOM     25  O   UNL     1       0.761   3.734 -26.256  0.00  0.00    -0.386 OA
ATOM     26  H   UNL     1       1.339   4.494 -26.087  0.00  0.00    +0.210 HD
ENDBRANCH  17  25
TORSDOF 2
ENDMDL
MODEL 7
REMARK VINA RESULT:    -9.127      3.070      5.589
REMARK INTER + INTRA:         -10.043
REMARK INTER:                  -9.913
REMARK INTRA:                  -0.130
REMARK UNBOUND:                -0.116
REMARK  Name = COc1ccc2c3c1O[C@@]1(C)[C@H](O)[C@H](Cl)C=C4[C@@H](C2)N(C)CC[C@@]431  ZINC000100393466
REMARK  5 active torsions:
REMARK  status: ('A' for Active; 'I' for Inactive)
REMARK    1  A    between atoms: C_1  and  O_2
REMARK    2  A    between atoms: O_2  and  C_3
REMARK    3  A    between atoms: C_10  and  C_11
REMARK    4  A    between atoms: C_12  and  O_13
REMARK    5  A    between atoms: N_20  and  C_21
REMARK                            x       y       z     vdW  Elec       q    Type
REMARK                         _______ _______ _______ _____ _____    ______ ____
ROOT
ATOM      1  C   UNL     1      -1.890   3.843 -23.377  0.00  0.00    +0.162 A 
ATOM      2  C   UNL     1      -2.438   2.795 -22.923  0.00  0.00    +0.050 A 
ATOM      3  C   UNL     1      -1.745   1.889 -22.405  0.00  0.00    +0.008 A 
ATOM      4  C   UNL     1      -0.497   2.017 -22.334  0.00  0.00    -0.034 A 
ATOM      5  C   UNL     1       0.067   3.054 -22.782  0.00  0.00    +0.016 A 
ATOM      6  C   UNL     1       1.311   3.179 -22.710  0.00  0.00    +0.072 C 
ATOM      7  C   UNL     1       2.715   3.434 -22.684  0.00  0.00    +0.071 C 
ATOM      8  C   UNL     1       3.522   2.428 -22.105  0.00  0.00    +0.133 C 
ATOM      9  N   UNL     1       2.875   1.275 -21.610  0.00  0.00    +0.239 N 
ATOM     10  H   UNL     1       3.408   0.517 -21.182  0.00  0.00    +0.204 HD
ATOM     11  C   UNL     1       3.517   0.338 -21.082  0.00  0.00    +0.191 C 
ATOM     12  C   UNL     1       1.455   1.227 -21.739  0.00  0.00    +0.096 C 
ATOM     13  C   UNL     1       2.006   2.274 -22.192  0.00  0.00    -0.010 C 
ATOM     14  C   UNL     1       3.265   2.403 -22.121  0.00  0.00    +0.000 C 
ATOM     15  C   UNL     1       3.816   3.436 -22.567  0.00  0.00    +0.136 C 
ATOM     16 CL   UNL     1       5.059   3.560 -22.495  0.00  0.00    -0.115 Cl
ATOM     17  C   UNL     1       3.120   4.356 -23.092  0.00  0.00    +0.180 C 
ATOM     18  C   UNL     1       1.875   4.229 -23.163  0.00  0.00    +0.149 C 
ATOM     19  C   UNL     1       2.151   5.340 -23.678  0.00  0.00    +0.060 C 
ATOM     20  O   UNL     1       0.563   4.838 -23.602  0.00  0.00    -0.478 OA
ATOM     21  C   UNL     1       0.211   1.098 -21.809  0.00  0.00    +0.094 C 
ATOM     22  C   UNL     1      -0.630   3.971 -23.305  0.00  0.00    +0.167 A 
ENDROOT
BRANCH   1  24
ATOM     23  C   UNL     1      -3.272   4.505 -24.916  0.00  0.00    +0.277 C 
ATOM     24  O   UNL     1      -2.586   4.747 -23.895  0.00  0.00    -0.491 OA
ENDBRANCH   1  24
BRANCH  17  25
ATOM     25  O   UNL     1       3.675   5.388 -23.538  0.00  0.00    -0.386 OA
ATOM     26  H   UNL     1       3.029   5.913 -24.036  0.00  0.00    +0.210 HD
ENDBRANCH  17  25
TORSDOF 2
ENDMDL
MODEL 8
REMARK VINA RESULT:    -8.992      3.009      4.357
REMARK INTER + INTRA:          -9.897
REMARK INTER:                  -9.752
REMARK INTRA:                  -0.144
REMARK UNBOUND:                -0.116
REMARK  Name = COc1ccc2c3c1O[C@@]1(C)[C@H](O)[C@H](Cl)C=C4[C@@H](C2)N(C)CC[C@@]431  ZINC000100393466
REMARK  5 active torsions:
REMARK  status: ('A' for Active; 'I' for Inactive)
REMARK    1  A    between atoms: C_1  and  O_2
REMARK    2  A    between atoms: O_2  and  C_3
REMARK    3  A    between atoms: C_10  and  C_11
REMARK    4  A    between atoms: C_12  and  O_13
REMARK    5  A    between atoms: N_20  and  C_21
REMARK                            x       y       z     vdW  Elec       q    Type
REMARK                         _______ _______ _______ _____ _____    ______ ____
ROOT
ATOM      1  C   UNL     1       5.753   2.589 -22.500  0.00  0.00    +0.162 A 
ATOM      2  C   UNL     1       5.805   1.389 -22.098  0.00  0.00    +0.050 A 
ATOM      3  C   UNL     1       4.753   0.745 -21.882  0.00  0.00    +0.008 A 
ATOM      4  C   UNL     1       3.636   1.290 -22.064  0.00  0.00    -0.034 A 
ATOM      5  C   UNL     1       3.563   2.485 -22.464  0.00  0.00    +0.016 A 
ATOM      6  C   UNL     1       2.448   3.026 -22.645  0.00  0.00    +0.072 C 
ATOM      7  C   UNL     1       1.240   3.745 -22.886  0.00  0.00    +0.071 C 
ATOM      8  C   UNL     1       0.036   3.043 -22.651  0.00  0.00    +0.133 C 
ATOM      9  N   UNL     1       0.135   1.707 -22.204  0.00  0.00    +0.239 N 
ATOM     10  H   UNL     1      -0.701   1.152 -22.018  0.00  0.00    +0.204 HD
ATOM     11  C   UNL     1      -0.883   1.015 -21.972  0.00  0.00    +0.191 C 
ATOM     12  C   UNL     1       1.450   1.182 -22.028  0.00  0.00    +0.096 C 
ATOM     13  C   UNL     1       1.394   2.383 -22.430  0.00  0.00    -0.010 C 
ATOM     14  C   UNL     1       0.267   2.932 -22.614  0.00  0.00    +0.000 C 
ATOM     15  C   UNL     1       0.205   4.119 -23.011  0.00  0.00    +0.136 C 
ATOM     16 CL   UNL     1      -0.910   4.658 -23.192  0.00  0.00    -0.115 Cl
ATOM     17  C   UNL     1       1.266   4.775 -23.231  0.00  0.00    +0.180 C 
ATOM     18  C   UNL     1       2.381   4.233 -23.050  0.00  0.00    +0.149 C 
ATOM     19  C   UNL     1       2.612   5.402 -23.442  0.00  0.00    +0.060 C 
ATOM     20  O   UNL     1       3.885   4.381 -23.100  0.00  0.00    -0.478 OA
ATOM     21  C   UNL     1       2.563   0.638 -21.846  0.00  0.00    +0.094 C 
ATOM     22  C   UNL     1       4.624   3.139 -22.683  0.00  0.00    +0.167 A 
ENDROOT
BRANCH   1  24
ATOM     23  C   UNL     1       7.190   4.101 -21.897  0.00  0.00    +0.277 C 
ATOM     24  O   UNL     1       6.807   3.232 -22.715  0.00  0.00    -0.491 OA
ENDBRANCH   1  24
BRANCH  17  25
ATOM     25  O   UNL     1       1.200   5.962 -23.629  0.00  0.00    -0.386 OA
ATOM     26  H   UNL     1       1.089   5.975 -24.592  0.00  0.00    +0.210 HD
ENDBRANCH  17  25
TORSDOF 2
ENDMDL
MODEL 9
REMARK VINA RESULT:    -8.314      2.219      3.410
REMARK INTER + INTRA:          -9.159
REMARK INTER:                  -9.043
REMARK INTRA:                  -0.116
REMARK UNBOUND:                -0.116
REMARK  Name = COc1ccc2c3c1O[C@@]1(C)[C@H](O)[C@H](Cl)C=C4[C@@H](C2)N(C)CC[C@@]431  ZINC000100393466
REMARK  5 active torsions:
REMARK  status: ('A' for Active; 'I' for Inactive)
REMARK    1  A    between atoms: C_1  and  O_2
REMARK    2  A    between atoms: O_2  and  C_3
REMARK    3  A    between atoms: C_10  and  C_11
REMARK    4  A    between atoms: C_12  and  O_13
REMARK    5  A    between atoms: N_20  and  C_21
REMARK                            x       y       z     vdW  Elec       q    Type
REMARK                         _______ _______ _______ _____ _____    ______ ____
ROOT
ATOM      1  C   UNL     1       3.253   2.303 -22.369  0.00  0.00    +0.162 A 
ATOM      2  C   UNL     1       3.719   3.132 -23.206  0.00  0.00    +0.050 A 
ATOM      3  C   UNL     1       2.950   3.867 -23.868  0.00  0.00    +0.008 A 
ATOM      4  C   UNL     1       1.707   3.783 -23.703  0.00  0.00    -0.034 A 
ATOM      5  C   UNL     1       1.224   2.963 -22.874  0.00  0.00    +0.016 A 
ATOM      6  C   UNL     1      -0.015   2.882 -22.711  0.00  0.00    +0.072 C 
ATOM      7  C   UNL     1      -1.404   2.701 -22.440  0.00  0.00    +0.071 C 
ATOM      8  C   UNL     1      -2.296   3.517 -23.173  0.00  0.00    +0.133 C 
ATOM      9  N   UNL     1      -1.739   4.429 -24.096  0.00  0.00    +0.239 N 
ATOM     10  H   UNL     1      -2.335   5.043 -24.653  0.00  0.00    +0.204 HD
ATOM     11  C   UNL     1      -2.459   5.188 -24.785  0.00  0.00    +0.191 C 
ATOM     12  C   UNL     1      -0.317   4.445 -24.208  0.00  0.00    +0.096 C 
ATOM     13  C   UNL     1      -0.786   3.617 -23.372  0.00  0.00    -0.010 C 
ATOM     14  C   UNL     1      -2.039   3.533 -23.206  0.00  0.00    +0.000 C 
ATOM     15  C   UNL     1      -2.509   2.716 -22.380  0.00  0.00    +0.136 C 
ATOM     16 CL   UNL     1      -3.748   2.636 -22.219  0.00  0.00    -0.115 Cl
ATOM     17  C   UNL     1      -1.736   1.970 -21.708  0.00  0.00    +0.180 C 
ATOM     18  C   UNL     1      -0.497   2.052 -21.872  0.00  0.00    +0.149 C 
ATOM     19  C   UNL     1      -0.684   1.169 -21.001  0.00  0.00    +0.060 C 
ATOM     20  O   UNL     1       0.870   1.545 -21.472  0.00  0.00    -0.478 OA
ATOM     21  C   UNL     1       0.922   4.529 -24.374  0.00  0.00    +0.094 C 
ATOM     22  C   UNL     1       1.998   2.220 -22.204  0.00  0.00    +0.167 A 
ENDROOT
BRANCH   1  24
ATOM     23  C   UNL     1       5.139   1.243 -22.183  0.00  0.00    +0.277 C 
ATOM     24  O   UNL     1       4.025   1.569 -21.709  0.00  0.00    -0.491 OA
ENDBRANCH   1  24
BRANCH  17  25
ATOM     25  O   UNL     1      -2.211   1.154 -20.883  0.00  0.00    -0.386 OA
ATOM     26  H   UNL     1      -2.683   1.636 -20.187  0.00  0.00    +0.210 HD
ENDBRANCH  17  25
TORSDOF 2
ENDMDL
