MODEL 1
REMARK VINA RESULT:    -9.832      0.000      0.000
REMARK INTER + INTRA:         -10.119
REMARK INTER:                 -10.119
REMARK INTRA:                   0.000
REMARK UNBOUND:                 0.000
REMARK  Name = ZINC000004521522
REMARK  5 active torsions:
REMARK  status: ('A' for Active; 'I' for Inactive)
REMARK    1  A    between atoms: C_1  and  C_2
REMARK    2  A    between atoms: C_11  and  C_12
REMARK    3  A    between atoms: C_11  and  O_13
REMARK    4  A    between atoms: C_14  and  C_15
REMARK    5  A    between atoms: C_14  and  C_16
REMARK                            x       y       z     vdW  Elec       q    Type
REMARK                         _______ _______ _______ _____ _____    ______ ____
ROOT
ATOM      1  C   UNL     1      -1.453   3.725 -25.510  0.00  0.00    +0.008 C 
ATOM      2  C   UNL     1      -2.632   3.761 -24.965  0.00  0.00    -0.010 C 
ATOM      3  C   UNL     1      -3.713   4.230 -25.514  0.00  0.00    +0.004 C 
ATOM      4  C   UNL     1      -4.687   4.094 -24.663  0.00  0.00    +0.007 C 
ATOM      5  C   UNL     1      -4.208   3.540 -23.589  0.00  0.00    +0.024 C 
ATOM      6  C   UNL     1      -4.929   3.265 -22.543  0.00  0.00    +0.066 C 
ATOM      7  C   UNL     1      -6.033   3.227 -21.859  0.00  0.00    +0.041 C 
ATOM      8  C   UNL     1      -4.557   2.717 -21.425  0.00  0.00    +0.035 C 
ATOM      9  C   UNL     1      -3.373   2.308 -21.076  0.00  0.00    +0.007 C 
ATOM     10  C   UNL     1      -2.268   2.346 -21.761  0.00  0.00    -0.001 C 
ATOM     11  C   UNL     1      -1.082   2.301 -22.289  0.00  0.00    -0.028 C 
ATOM     12  C   UNL     1      -0.124   2.449 -23.157  0.00  0.00    +0.011 C 
ATOM     13  C   UNL     1      -0.421   1.749 -21.316  0.00  0.00    +0.011 C 
ATOM     14  C   UNL     1      -2.075   2.803 -22.962  0.00  0.00    +0.002 C 
ATOM     15  C   UNL     1      -2.938   3.334 -23.776  0.00  0.00    +0.002 C 
ENDROOT
BRANCH   6  16
ATOM     16  O   UNL     1      -5.791   3.796 -23.357  0.00  0.00    -0.389 OA
ATOM     17  H   UNL     1      -6.098   3.125 -23.987  0.00  0.00    +0.210 HD
ENDBRANCH   6  16
TORSDOF 1
ENDMDL
MODEL 2
REMARK VINA RESULT:    -9.360      1.676      3.624
REMARK INTER + INTRA:          -9.634
REMARK INTER:                  -9.634
REMARK INTRA:                   0.000
REMARK UNBOUND:                 0.000
REMARK  Name = ZINC000004521522
REMARK  5 active torsions:
REMARK  status: ('A' for Active; 'I' for Inactive)
REMARK    1  A    between atoms: C_1  and  C_2
REMARK    2  A    between atoms: C_11  and  C_12
REMARK    3  A    between atoms: C_11  and  O_13
REMARK    4  A    between atoms: C_14  and  C_15
REMARK    5  A    between atoms: C_14  and  C_16
REMARK                            x       y       z     vdW  Elec       q    Type
REMARK                         _______ _______ _______ _____ _____    ______ ____
ROOT
ATOM      1  C   UNL     1      -5.180   3.757 -24.881  0.00  0.00    +0.008 C 
ATOM      2  C   UNL     1      -3.902   3.564 -25.014  0.00  0.00    -0.010 C 
ATOM      3  C   UNL     1      -3.229   3.642 -26.125  0.00  0.00    +0.004 C 
ATOM      4  C   UNL     1      -1.983   3.386 -25.858  0.00  0.00    +0.007 C 
ATOM      5  C   UNL     1      -1.884   3.150 -24.584  0.00  0.00    +0.024 C 
ATOM      6  C   UNL     1      -0.764   2.860 -23.994  0.00  0.00    +0.066 C 
ATOM      7  C   UNL     1       0.517   2.637 -23.956  0.00  0.00    +0.041 C 
ATOM      8  C   UNL     1      -0.551   2.607 -22.737  0.00  0.00    +0.035 C 
ATOM      9  C   UNL     1      -1.408   2.583 -21.759  0.00  0.00    +0.007 C 
ATOM     10  C   UNL     1      -2.688   2.806 -21.797  0.00  0.00    -0.001 C 
ATOM     11  C   UNL     1      -3.965   2.995 -21.644  0.00  0.00    -0.028 C 
ATOM     12  C   UNL     1      -5.205   3.254 -21.935  0.00  0.00    +0.011 C 
ATOM     13  C   UNL     1      -4.071   2.793 -20.364  0.00  0.00    +0.011 C 
ATOM     14  C   UNL     1      -3.428   3.107 -22.822  0.00  0.00    +0.002 C 
ATOM     15  C   UNL     1      -3.070   3.260 -24.063  0.00  0.00    +0.002 C 
ENDROOT
BRANCH   6  16
ATOM     16  O   UNL     1      -0.407   3.013 -25.234  0.00  0.00    -0.389 OA
ATOM     17  H   UNL     1       0.380   3.579 -25.277  0.00  0.00    +0.210 HD
ENDBRANCH   6  16
TORSDOF 1
ENDMDL
MODEL 3
REMARK VINA RESULT:    -9.347      1.533      4.021
REMARK INTER + INTRA:          -9.620
REMARK INTER:                  -9.620
REMARK INTRA:                   0.000
REMARK UNBOUND:                 0.000
REMARK  Name = ZINC000004521522
REMARK  5 active torsions:
REMARK  status: ('A' for Active; 'I' for Inactive)
REMARK    1  A    between atoms: C_1  and  C_2
REMARK    2  A    between atoms: C_11  and  C_12
REMARK    3  A    between atoms: C_11  and  O_13
REMARK    4  A    between atoms: C_14  and  C_15
REMARK    5  A    between atoms: C_14  and  C_16
REMARK                            x       y       z     vdW  Elec       q    Type
REMARK                         _______ _______ _______ _____ _____    ______ ____
ROOT
ATOM      1  C   UNL     1      -1.092   2.422 -21.501  0.00  0.00    +0.008 C 
ATOM      2  C   UNL     1      -1.156   2.676 -22.773  0.00  0.00    -0.010 C 
ATOM      3  C   UNL     1      -0.156   2.676 -23.604  0.00  0.00    +0.004 C 
ATOM      4  C   UNL     1      -0.613   2.975 -24.784  0.00  0.00    +0.007 C 
ATOM      5  C   UNL     1      -1.896   3.161 -24.683  0.00  0.00    +0.024 C 
ATOM      6  C   UNL     1      -2.655   3.475 -25.689  0.00  0.00    +0.066 C 
ATOM      7  C   UNL     1      -2.891   3.752 -26.937  0.00  0.00    +0.041 C 
ATOM      8  C   UNL     1      -3.939   3.682 -25.702  0.00  0.00    +0.035 C 
ATOM      9  C   UNL     1      -4.779   3.627 -24.711  0.00  0.00    +0.007 C 
ATOM     10  C   UNL     1      -4.543   3.350 -23.463  0.00  0.00    -0.001 C 
ATOM     11  C   UNL     1      -4.498   3.098 -22.189  0.00  0.00    -0.028 C 
ATOM     12  C   UNL     1      -4.017   2.797 -21.019  0.00  0.00    +0.011 C 
ATOM     13  C   UNL     1      -5.755   3.241 -21.886  0.00  0.00    +0.011 C 
ATOM     14  C   UNL     1      -3.409   3.060 -22.897  0.00  0.00    +0.002 C 
ATOM     15  C   UNL     1      -2.231   2.976 -23.440  0.00  0.00    +0.002 C 
ENDROOT
BRANCH   6  16
ATOM     16  O   UNL     1      -1.478   3.391 -26.231  0.00  0.00    -0.389 OA
ATOM     17  H   UNL     1      -1.498   3.792 -27.114  0.00  0.00    +0.210 HD
ENDBRANCH   6  16
TORSDOF 1
ENDMDL
MODEL 4
REMARK VINA RESULT:    -9.228      0.952      3.128
REMARK INTER + INTRA:          -9.498
REMARK INTER:                  -9.498
REMARK INTRA:                   0.000
REMARK UNBOUND:                 0.000
REMARK  Name = ZINC000004521522
REMARK  5 active torsions:
REMARK  status: ('A' for Active; 'I' for Inactive)
REMARK    1  A    between atoms: C_1  and  C_2
REMARK    2  A    between atoms: C_11  and  C_12
REMARK    3  A    between atoms: C_11  and  O_13
REMARK    4  A    between atoms: C_14  and  C_15
REMARK    5  A    between atoms: C_14  and  C_16
REMARK                            x       y       z     vdW  Elec       q    Type
REMARK                         _______ _______ _______ _____ _____    ______ ____
ROOT
ATOM      1  C   UNL     1      -3.993   2.750 -20.825  0.00  0.00    +0.008 C 
ATOM      2  C   UNL     1      -4.254   3.106 -22.047  0.00  0.00    -0.010 C 
ATOM      3  C   UNL     1      -5.412   3.489 -22.501  0.00  0.00    +0.004 C 
ATOM      4  C   UNL     1      -5.278   3.762 -23.765  0.00  0.00    +0.007 C 
ATOM      5  C   UNL     1      -4.038   3.548 -24.093  0.00  0.00    +0.024 C 
ATOM      6  C   UNL     1      -3.575   3.728 -25.293  0.00  0.00    +0.066 C 
ATOM      7  C   UNL     1      -3.668   4.053 -26.549  0.00  0.00    +0.041 C 
ATOM      8  C   UNL     1      -2.363   3.548 -25.729  0.00  0.00    +0.035 C 
ATOM      9  C   UNL     1      -1.317   3.143 -25.072  0.00  0.00    +0.007 C 
ATOM     10  C   UNL     1      -1.224   2.818 -23.817  0.00  0.00    -0.001 C 
ATOM     11  C   UNL     1      -0.943   2.459 -22.600  0.00  0.00    -0.028 C 
ATOM     12  C   UNL     1      -1.102   2.192 -21.337  0.00  0.00    +0.011 C 
ATOM     13  C   UNL     1       0.323   2.191 -22.729  0.00  0.00    +0.011 C 
ATOM     14  C   UNL     1      -2.153   2.819 -22.909  0.00  0.00    +0.002 C 
ATOM     15  C   UNL     1      -3.406   3.144 -23.031  0.00  0.00    +0.002 C 
ENDROOT
BRANCH   6  16
ATOM     16  O   UNL     1      -4.827   4.053 -25.415  0.00  0.00    -0.389 OA
ATOM     17  H   UNL     1      -5.195   3.631 -26.208  0.00  0.00    +0.210 HD
ENDBRANCH   6  16
TORSDOF 1
ENDMDL
MODEL 5
REMARK VINA RESULT:    -9.163      1.571      4.441
REMARK INTER + INTRA:          -9.431
REMARK INTER:                  -9.431
REMARK INTRA:                   0.000
REMARK UNBOUND:                 0.000
REMARK  Name = ZINC000004521522
REMARK  5 active torsions:
REMARK  status: ('A' for Active; 'I' for Inactive)
REMARK    1  A    between atoms: C_1  and  C_2
REMARK    2  A    between atoms: C_11  and  C_12
REMARK    3  A    between atoms: C_11  and  O_13
REMARK    4  A    between atoms: C_14  and  C_15
REMARK    5  A    between atoms: C_14  and  C_16
REMARK                            x       y       z     vdW  Elec       q    Type
REMARK                         _______ _______ _______ _____ _____    ______ ____
ROOT
ATOM      1  C   UNL     1      -5.562   3.372 -22.493  0.00  0.00    +0.008 C 
ATOM      2  C   UNL     1      -4.358   3.080 -22.101  0.00  0.00    -0.010 C 
ATOM      3  C   UNL     1      -4.000   2.793 -20.884  0.00  0.00    +0.004 C 
ATOM      4  C   UNL     1      -2.721   2.559 -20.886  0.00  0.00    +0.007 C 
ATOM      5  C   UNL     1      -2.289   2.701 -22.104  0.00  0.00    +0.024 C 
ATOM      6  C   UNL     1      -1.046   2.535 -22.446  0.00  0.00    +0.066 C 
ATOM      7  C   UNL     1       0.205   2.265 -22.220  0.00  0.00    +0.041 C 
ATOM      8  C   UNL     1      -0.508   2.650 -23.624  0.00  0.00    +0.035 C 
ATOM      9  C   UNL     1      -1.080   2.959 -24.750  0.00  0.00    +0.007 C 
ATOM     10  C   UNL     1      -2.331   3.229 -24.976  0.00  0.00    -0.001 C 
ATOM     11  C   UNL     1      -3.529   3.524 -25.388  0.00  0.00    -0.028 C 
ATOM     12  C   UNL     1      -4.808   3.753 -25.360  0.00  0.00    +0.011 C 
ATOM     13  C   UNL     1      -3.294   3.710 -26.653  0.00  0.00    +0.011 C 
ATOM     14  C   UNL     1      -3.320   3.258 -24.132  0.00  0.00    +0.002 C 
ATOM     15  C   UNL     1      -3.301   3.022 -22.854  0.00  0.00    +0.002 C 
ENDROOT
BRANCH   6  16
ATOM     16  O   UNL     1      -1.028   2.300 -21.168  0.00  0.00    -0.389 OA
ATOM     17  H   UNL     1      -1.020   1.342 -21.016  0.00  0.00    +0.210 HD
ENDBRANCH   6  16
TORSDOF 1
ENDMDL
MODEL 6
REMARK VINA RESULT:    -8.793      0.849      3.137
REMARK INTER + INTRA:          -9.050
REMARK INTER:                  -9.050
REMARK INTRA:                   0.000
REMARK UNBOUND:                 0.000
REMARK  Name = ZINC000004521522
REMARK  5 active torsions:
REMARK  status: ('A' for Active; 'I' for Inactive)
REMARK    1  A    between atoms: C_1  and  C_2
REMARK    2  A    between atoms: C_11  and  C_12
REMARK    3  A    between atoms: C_11  and  O_13
REMARK    4  A    between atoms: C_14  and  C_15
REMARK    5  A    between atoms: C_14  and  C_16
REMARK                            x       y       z     vdW  Elec       q    Type
REMARK                         _______ _______ _______ _____ _____    ______ ____
ROOT
ATOM      1  C   UNL     1      -1.350   2.253 -21.006  0.00  0.00    +0.008 C 
ATOM      2  C   UNL     1      -2.479   2.634 -21.523  0.00  0.00    -0.010 C 
ATOM      3  C   UNL     1      -3.633   2.632 -20.922  0.00  0.00    +0.004 C 
ATOM      4  C   UNL     1      -4.522   3.081 -21.758  0.00  0.00    +0.007 C 
ATOM      5  C   UNL     1      -3.918   3.360 -22.875  0.00  0.00    +0.024 C 
ATOM      6  C   UNL     1      -4.529   3.831 -23.921  0.00  0.00    +0.066 C 
ATOM      7  C   UNL     1      -5.568   4.246 -24.582  0.00  0.00    +0.041 C 
ATOM      8  C   UNL     1      -4.029   4.143 -25.079  0.00  0.00    +0.035 C 
ATOM      9  C   UNL     1      -2.794   4.061 -25.478  0.00  0.00    +0.007 C 
ATOM     10  C   UNL     1      -1.755   3.646 -24.817  0.00  0.00    -0.001 C 
ATOM     11  C   UNL     1      -0.615   3.269 -24.317  0.00  0.00    -0.028 C 
ATOM     12  C   UNL     1       0.255   2.818 -23.463  0.00  0.00    +0.011 C 
ATOM     13  C   UNL     1       0.161   3.484 -25.338  0.00  0.00    +0.011 C 
ATOM     14  C   UNL     1      -1.693   3.211 -23.593  0.00  0.00    +0.002 C 
ATOM     15  C   UNL     1      -2.656   3.084 -22.729  0.00  0.00    +0.002 C 
ENDROOT
BRANCH   6  16
ATOM     16  O   UNL     1      -5.491   3.704 -23.057  0.00  0.00    -0.389 OA
ATOM     17  H   UNL     1      -5.147   3.861 -22.163  0.00  0.00    +0.210 HD
ENDBRANCH   6  16
TORSDOF 1
ENDMDL
MODEL 7
REMARK VINA RESULT:    -8.112      2.454      4.615
REMARK INTER + INTRA:          -8.349
REMARK INTER:                  -8.349
REMARK INTRA:                   0.000
REMARK UNBOUND:                 0.000
REMARK  Name = ZINC000004521522
REMARK  5 active torsions:
REMARK  status: ('A' for Active; 'I' for Inactive)
REMARK    1  A    between atoms: C_1  and  C_2
REMARK    2  A    between atoms: C_11  and  C_12
REMARK    3  A    between atoms: C_11  and  O_13
REMARK    4  A    between atoms: C_14  and  C_15
REMARK    5  A    between atoms: C_14  and  C_16
REMARK                            x       y       z     vdW  Elec       q    Type
REMARK                         _______ _______ _______ _____ _____    ______ ____
ROOT
ATOM      1  C   UNL     1      -1.783   3.965 -25.244  0.00  0.00    +0.008 C 
ATOM      2  C   UNL     1      -0.661   3.487 -24.795  0.00  0.00    -0.010 C 
ATOM      3  C   UNL     1       0.484   3.518 -25.412  0.00  0.00    +0.004 C 
ATOM      4  C   UNL     1       1.367   2.944 -24.649  0.00  0.00    +0.007 C 
ATOM      5  C   UNL     1       0.768   2.558 -23.561  0.00  0.00    +0.024 C 
ATOM      6  C   UNL     1       1.375   1.947 -22.589  0.00  0.00    +0.066 C 
ATOM      7  C   UNL     1       2.407   1.422 -21.998  0.00  0.00    +0.041 C 
ATOM      8  C   UNL     1       0.879   1.520 -21.465  0.00  0.00    +0.035 C 
ATOM      9  C   UNL     1      -0.346   1.599 -21.038  0.00  0.00    +0.007 C 
ATOM     10  C   UNL     1      -1.378   2.125 -21.628  0.00  0.00    -0.001 C 
ATOM     11  C   UNL     1      -2.509   2.597 -22.060  0.00  0.00    -0.028 C 
ATOM     12  C   UNL     1      -3.374   3.175 -22.841  0.00  0.00    +0.011 C 
ATOM     13  C   UNL     1      -3.279   2.292 -21.058  0.00  0.00    +0.011 C 
ATOM     14  C   UNL     1      -1.440   2.701 -22.792  0.00  0.00    +0.002 C 
ATOM     15  C   UNL     1      -0.485   2.894 -23.652  0.00  0.00    +0.002 C 
ENDROOT
BRANCH   6  16
ATOM     16  O   UNL     1       2.329   2.141 -23.449  0.00  0.00    -0.389 OA
ATOM     17  H   UNL     1       3.091   2.544 -23.002  0.00  0.00    +0.210 HD
ENDBRANCH   6  16
TORSDOF 1
ENDMDL
MODEL 8
REMARK VINA RESULT:    -8.085      1.560      2.646
REMARK INTER + INTRA:          -8.321
REMARK INTER:                  -8.321
REMARK INTRA:                   0.000
REMARK UNBOUND:                 0.000
REMARK  Name = ZINC000004521522
REMARK  5 active torsions:
REMARK  status: ('A' for Active; 'I' for Inactive)
REMARK    1  A    between atoms: C_1  and  C_2
REMARK    2  A    between atoms: C_11  and  C_12
REMARK    3  A    between atoms: C_11  and  O_13
REMARK    4  A    between atoms: C_14  and  C_15
REMARK    5  A    between atoms: C_14  and  C_16
REMARK                            x       y       z     vdW  Elec       q    Type
REMARK                         _______ _______ _______ _____ _____    ______ ____
ROOT
ATOM      1  C   UNL     1       1.056   3.375 -25.566  0.00  0.00    +0.008 C 
ATOM      2  C   UNL     1      -0.112   3.331 -24.998  0.00  0.00    -0.010 C 
ATOM      3  C   UNL     1      -1.230   3.747 -25.517  0.00  0.00    +0.004 C 
ATOM      4  C   UNL     1      -2.177   3.537 -24.652  0.00  0.00    +0.007 C 
ATOM      5  C   UNL     1      -1.646   2.991 -23.598  0.00  0.00    +0.024 C 
ATOM      6  C   UNL     1      -2.328   2.655 -22.545  0.00  0.00    +0.066 C 
ATOM      7  C   UNL     1      -3.415   2.538 -21.842  0.00  0.00    +0.041 C 
ATOM      8  C   UNL     1      -1.903   2.107 -21.445  0.00  0.00    +0.035 C 
ATOM      9  C   UNL     1      -0.690   1.762 -21.127  0.00  0.00    +0.007 C 
ATOM     10  C   UNL     1       0.396   1.879 -21.831  0.00  0.00    -0.001 C 
ATOM     11  C   UNL     1       1.573   1.915 -22.382  0.00  0.00    -0.028 C 
ATOM     12  C   UNL     1       2.503   2.135 -23.264  0.00  0.00    +0.011 C 
ATOM     13  C   UNL     1       2.284   1.383 -21.432  0.00  0.00    +0.011 C 
ATOM     14  C   UNL     1       0.539   2.370 -23.026  0.00  0.00    +0.002 C 
ATOM     15  C   UNL     1      -0.369   2.865 -23.813  0.00  0.00    +0.002 C 
ENDROOT
BRANCH   6  16
ATOM     16  O   UNL     1      -3.236   3.149 -23.332  0.00  0.00    -0.389 OA
ATOM     17  H   UNL     1      -3.743   3.826 -22.856  0.00  0.00    +0.210 HD
ENDBRANCH   6  16
TORSDOF 1
ENDMDL
MODEL 9
REMARK VINA RESULT:    -7.728      2.038      4.408
REMARK INTER + INTRA:          -7.953
REMARK INTER:                  -7.953
REMARK INTRA:                   0.000
REMARK UNBOUND:                 0.000
REMARK  Name = ZINC000004521522
REMARK  5 active torsions:
REMARK  status: ('A' for Active; 'I' for Inactive)
REMARK    1  A    between atoms: C_1  and  C_2
REMARK    2  A    between atoms: C_11  and  C_12
REMARK    3  A    between atoms: C_11  and  O_13
REMARK    4  A    between atoms: C_14  and  C_15
REMARK    5  A    between atoms: C_14  and  C_16
REMARK                            x       y       z     vdW  Elec       q    Type
REMARK                         _______ _______ _______ _____ _____    ______ ____
ROOT
ATOM      1  C   UNL     1       0.449   1.511 -20.627  0.00  0.00    +0.008 C 
ATOM      2  C   UNL     1      -0.416   1.908 -21.512  0.00  0.00    -0.010 C 
ATOM      3  C   UNL     1      -1.711   1.853 -21.393  0.00  0.00    +0.004 C 
ATOM      4  C   UNL     1      -2.235   2.341 -22.478  0.00  0.00    +0.007 C 
ATOM      5  C   UNL     1      -1.265   2.697 -23.268  0.00  0.00    +0.024 C 
ATOM      6  C   UNL     1      -1.454   3.224 -24.440  0.00  0.00    +0.066 C 
ATOM      7  C   UNL     1      -2.182   3.666 -25.422  0.00  0.00    +0.041 C 
ATOM      8  C   UNL     1      -0.566   3.615 -25.306  0.00  0.00    +0.035 C 
ATOM      9  C   UNL     1       0.730   3.574 -25.212  0.00  0.00    +0.007 C 
ATOM     10  C   UNL     1       1.458   3.132 -24.229  0.00  0.00    -0.001 C 
ATOM     11  C   UNL     1       2.339   2.741 -23.357  0.00  0.00    -0.028 C 
ATOM     12  C   UNL     1       2.839   2.249 -22.262  0.00  0.00    +0.011 C 
ATOM     13  C   UNL     1       3.434   3.029 -23.996  0.00  0.00    +0.011 C 
ATOM     14  C   UNL     1       1.070   2.623 -23.098  0.00  0.00    +0.002 C 
ATOM     15  C   UNL     1      -0.142   2.429 -22.670  0.00  0.00    +0.002 C 
ENDROOT
BRANCH   6  16
ATOM     16  O   UNL     1      -2.665   3.031 -24.012  0.00  0.00    -0.389 OA
ATOM     17  H   UNL     1      -2.728   2.153 -23.604  0.00  0.00    +0.210 HD
ENDBRANCH   6  16
TORSDOF 1
ENDMDL
