MODEL 1
REMARK VINA RESULT:   -10.732      0.000      0.000
REMARK INTER + INTRA:         -11.438
REMARK INTER:                 -11.361
REMARK INTRA:                  -0.077
REMARK UNBOUND:                -0.078
REMARK  Name = ZINC000001715690
REMARK  5 active torsions:
REMARK  status: ('A' for Active; 'I' for Inactive)
REMARK    1  A    between atoms: C_1  and  O_2
REMARK    2  A    between atoms: O_2  and  C_3
REMARK    3  A    between atoms: C_11  and  C_12
REMARK    4  A    between atoms: C_18  and  C_19
REMARK    5  A    between atoms: C_18  and  C_20
REMARK                            x       y       z     vdW  Elec       q    Type
REMARK                         _______ _______ _______ _____ _____    ______ ____
ROOT
ATOM      1  C   UNL     1       3.434   1.692 -22.627  0.00  0.00    +0.121 A 
ATOM      2  C   UNL     1       3.678   1.765 -23.902  0.00  0.00    +0.047 A 
ATOM      3  C   UNL     1       2.724   2.073 -24.730  0.00  0.00    +0.030 A 
ATOM      4  C   UNL     1       1.526   2.309 -24.283  0.00  0.00    +0.048 A 
ATOM      5  N   UNL     1       0.420   2.629 -24.885  0.00  0.00    -0.354 N 
ATOM      6  H   UNL     1       0.304   2.756 -25.855  0.00  0.00    +0.166 HD
ATOM      7  C   UNL     1      -0.508   2.755 -23.983  0.00  0.00    +0.058 A 
ATOM      8  C   UNL     1      -1.768   3.059 -24.069  0.00  0.00    +0.041 A 
ATOM      9  C   UNL     1      -2.496   3.120 -22.993  0.00  0.00    +0.134 A 
ATOM     10  O   UNL     1      -3.757   3.424 -23.078  0.00  0.00    -0.481 OA
ATOM     11  C   UNL     1      -4.291   3.668 -24.238  0.00  0.00    +0.124 C 
ATOM     12  C   UNL     1      -3.563   3.607 -25.313  0.00  0.00    +0.020 C 
ATOM     13  C   UNL     1      -5.329   3.833 -23.473  0.00  0.00    +0.060 C 
ATOM     14  C   UNL     1      -5.184   3.969 -25.133  0.00  0.00    +0.060 C 
ATOM     15  C   UNL     1      -1.963   2.876 -21.832  0.00  0.00    -0.007 A 
ATOM     16  C   UNL     1      -0.702   2.572 -21.747  0.00  0.00    +0.017 A 
ATOM     17  C   UNL     1      -2.691   2.937 -20.757  0.00  0.00    +0.047 C 
ATOM     18  C   UNL     1      -2.302   3.303 -25.229  0.00  0.00    +0.013 C 
ATOM     19  C   UNL     1       0.026   2.511 -22.823  0.00  0.00    +0.009 A 
ATOM     20  C   UNL     1       1.282   2.235 -23.008  0.00  0.00    +0.011 A 
ATOM     21  C   UNL     1       2.237   1.927 -22.180  0.00  0.00    +0.056 A 
ENDROOT
BRANCH   1  23
ATOM     22  C   UNL     1       4.235   0.399 -20.967  0.00  0.00    +0.277 C 
ATOM     23  O   UNL     1       4.389   1.383 -21.800  0.00  0.00    -0.495 OA
ENDBRANCH   1  23
TORSDOF 1
ENDMDL
MODEL 2
REMARK VINA RESULT:   -10.550      1.317      2.673
REMARK INTER + INTRA:         -11.245
REMARK INTER:                 -11.169
REMARK INTRA:                  -0.076
REMARK UNBOUND:                -0.078
REMARK  Name = ZINC000001715690
REMARK  5 active torsions:
REMARK  status: ('A' for Active; 'I' for Inactive)
REMARK    1  A    between atoms: C_1  and  O_2
REMARK    2  A    between atoms: O_2  and  C_3
REMARK    3  A    between atoms: C_11  and  C_12
REMARK    4  A    between atoms: C_18  and  C_19
REMARK    5  A    between atoms: C_18  and  C_20
REMARK                            x       y       z     vdW  Elec       q    Type
REMARK                         _______ _______ _______ _____ _____    ______ ____
ROOT
ATOM      1  C   UNL     1       3.232   1.780 -22.638  0.00  0.00    +0.121 A 
ATOM      2  C   UNL     1       3.131   1.388 -21.402  0.00  0.00    +0.047 A 
ATOM      3  C   UNL     1       1.973   1.401 -20.809  0.00  0.00    +0.030 A 
ATOM      4  C   UNL     1       0.919   1.807 -21.450  0.00  0.00    +0.048 A 
ATOM      5  N   UNL     1      -0.327   1.917 -21.096  0.00  0.00    -0.354 N 
ATOM      6  H   UNL     1      -0.699   1.691 -20.212  0.00  0.00    +0.166 HD
ATOM      7  C   UNL     1      -0.996   2.377 -22.111  0.00  0.00    +0.058 A 
ATOM      8  C   UNL     1      -2.255   2.658 -22.268  0.00  0.00    +0.041 A 
ATOM      9  C   UNL     1      -2.681   3.115 -23.407  0.00  0.00    +0.134 A 
ATOM     10  O   UNL     1      -3.941   3.398 -23.565  0.00  0.00    -0.481 OA
ATOM     11  C   UNL     1      -4.774   3.223 -22.582  0.00  0.00    +0.124 C 
ATOM     12  C   UNL     1      -4.347   2.766 -21.442  0.00  0.00    +0.020 C 
ATOM     13  C   UNL     1      -5.587   3.673 -23.490  0.00  0.00    +0.060 C 
ATOM     14  C   UNL     1      -5.889   3.204 -21.915  0.00  0.00    +0.060 C 
ATOM     15  C   UNL     1      -1.848   3.291 -24.391  0.00  0.00    -0.007 A 
ATOM     16  C   UNL     1      -0.589   3.008 -24.234  0.00  0.00    +0.017 A 
ATOM     17  C   UNL     1      -2.275   3.748 -25.531  0.00  0.00    +0.047 C 
ATOM     18  C   UNL     1      -3.088   2.484 -21.285  0.00  0.00    +0.013 C 
ATOM     19  C   UNL     1      -0.163   2.551 -23.094  0.00  0.00    +0.009 A 
ATOM     20  C   UNL     1       1.020   2.200 -22.686  0.00  0.00    +0.011 A 
ATOM     21  C   UNL     1       2.178   2.186 -23.279  0.00  0.00    +0.056 A 
ENDROOT
BRANCH   1  23
ATOM     22  C   UNL     1       4.939   2.880 -23.610  0.00  0.00    +0.277 C 
ATOM     23  O   UNL     1       4.389   1.766 -23.230  0.00  0.00    -0.495 OA
ENDBRANCH   1  23
TORSDOF 1
ENDMDL
MODEL 3
REMARK VINA RESULT:   -10.114      1.200      6.329
REMARK INTER + INTRA:         -10.783
REMARK INTER:                 -10.705
REMARK INTRA:                  -0.078
REMARK UNBOUND:                -0.078
REMARK  Name = ZINC000001715690
REMARK  5 active torsions:
REMARK  status: ('A' for Active; 'I' for Inactive)
REMARK    1  A    between atoms: C_1  and  O_2
REMARK    2  A    between atoms: O_2  and  C_3
REMARK    3  A    between atoms: C_11  and  C_12
REMARK    4  A    between atoms: C_18  and  C_19
REMARK    5  A    between atoms: C_18  and  C_20
REMARK                            x       y       z     vdW  Elec       q    Type
REMARK                         _______ _______ _______ _____ _____    ______ ____
ROOT
ATOM      1  C   UNL     1      -4.745   3.726 -23.592  0.00  0.00    +0.121 A 
ATOM      2  C   UNL     1      -4.586   4.205 -24.791  0.00  0.00    +0.047 A 
ATOM      3  C   UNL     1      -3.406   4.206 -25.339  0.00  0.00    +0.030 A 
ATOM      4  C   UNL     1      -2.387   3.728 -24.689  0.00  0.00    +0.048 A 
ATOM      5  N   UNL     1      -1.131   3.613 -25.002  0.00  0.00    -0.354 N 
ATOM      6  H   UNL     1      -0.718   3.894 -25.852  0.00  0.00    +0.166 HD
ATOM      7  C   UNL     1      -0.514   3.064 -23.999  0.00  0.00    +0.058 A 
ATOM      8  C   UNL     1       0.731   2.740 -23.815  0.00  0.00    +0.041 A 
ATOM      9  C   UNL     1       1.101   2.191 -22.697  0.00  0.00    +0.134 A 
ATOM     10  O   UNL     1       2.347   1.867 -22.512  0.00  0.00    -0.481 OA
ATOM     11  C   UNL     1       3.223   2.092 -23.447  0.00  0.00    +0.124 C 
ATOM     12  C   UNL     1       2.853   2.641 -24.565  0.00  0.00    +0.020 C 
ATOM     13  C   UNL     1       3.989   1.556 -22.544  0.00  0.00    +0.060 C 
ATOM     14  C   UNL     1       4.364   2.131 -24.067  0.00  0.00    +0.060 C 
ATOM     15  C   UNL     1       0.226   1.965 -21.762  0.00  0.00    -0.007 A 
ATOM     16  C   UNL     1      -1.020   2.290 -21.946  0.00  0.00    +0.017 A 
ATOM     17  C   UNL     1       0.596   1.416 -20.643  0.00  0.00    +0.047 C 
ATOM     18  C   UNL     1       1.607   2.966 -24.750  0.00  0.00    +0.013 C 
ATOM     19  C   UNL     1      -1.389   2.839 -23.065  0.00  0.00    +0.009 A 
ATOM     20  C   UNL     1      -2.547   3.249 -23.491  0.00  0.00    +0.011 A 
ATOM     21  C   UNL     1      -3.727   3.248 -22.943  0.00  0.00    +0.056 A 
ENDROOT
BRANCH   1  23
ATOM     22  C   UNL     1      -6.147   3.019 -21.978  0.00  0.00    +0.277 C 
ATOM     23  O   UNL     1      -5.924   3.726 -23.046  0.00  0.00    -0.495 OA
ENDBRANCH   1  23
TORSDOF 1
ENDMDL
MODEL 4
REMARK VINA RESULT:   -10.079      1.477      6.838
REMARK INTER + INTRA:         -10.746
REMARK INTER:                 -10.669
REMARK INTRA:                  -0.078
REMARK UNBOUND:                -0.078
REMARK  Name = ZINC000001715690
REMARK  5 active torsions:
REMARK  status: ('A' for Active; 'I' for Inactive)
REMARK    1  A    between atoms: C_1  and  O_2
REMARK    2  A    between atoms: O_2  and  C_3
REMARK    3  A    between atoms: C_11  and  C_12
REMARK    4  A    between atoms: C_18  and  C_19
REMARK    5  A    between atoms: C_18  and  C_20
REMARK                            x       y       z     vdW  Elec       q    Type
REMARK                         _______ _______ _______ _____ _____    ______ ____
ROOT
ATOM      1  C   UNL     1      -4.498   3.405 -22.946  0.00  0.00    +0.121 A 
ATOM      2  C   UNL     1      -4.669   3.000 -21.722  0.00  0.00    +0.047 A 
ATOM      3  C   UNL     1      -3.659   2.544 -21.041  0.00  0.00    +0.030 A 
ATOM      4  C   UNL     1      -2.479   2.494 -21.584  0.00  0.00    +0.048 A 
ATOM      5  N   UNL     1      -1.329   2.092 -21.131  0.00  0.00    -0.354 N 
ATOM      6  H   UNL     1      -1.156   1.731 -20.230  0.00  0.00    +0.166 HD
ATOM      7  C   UNL     1      -0.448   2.247 -22.073  0.00  0.00    +0.058 A 
ATOM      8  C   UNL     1       0.827   1.999 -22.121  0.00  0.00    +0.041 A 
ATOM      9  C   UNL     1       1.497   2.250 -23.207  0.00  0.00    +0.134 A 
ATOM     10  O   UNL     1       2.773   2.002 -23.256  0.00  0.00    -0.481 OA
ATOM     11  C   UNL     1       3.378   1.503 -22.219  0.00  0.00    +0.124 C 
ATOM     12  C   UNL     1       2.708   1.252 -21.134  0.00  0.00    +0.020 C 
ATOM     13  C   UNL     1       4.378   1.592 -23.044  0.00  0.00    +0.060 C 
ATOM     14  C   UNL     1       4.331   1.035 -21.469  0.00  0.00    +0.060 C 
ATOM     15  C   UNL     1       0.892   2.750 -24.244  0.00  0.00    -0.007 A 
ATOM     16  C   UNL     1      -0.384   2.998 -24.195  0.00  0.00    +0.017 A 
ATOM     17  C   UNL     1       1.562   3.001 -25.330  0.00  0.00    +0.047 C 
ATOM     18  C   UNL     1       1.433   1.500 -21.085  0.00  0.00    +0.013 C 
ATOM     19  C   UNL     1      -1.053   2.747 -23.110  0.00  0.00    +0.009 A 
ATOM     20  C   UNL     1      -2.308   2.899 -22.807  0.00  0.00    +0.011 A 
ATOM     21  C   UNL     1      -3.318   3.355 -23.488  0.00  0.00    +0.056 A 
ENDROOT
BRANCH   1  23
ATOM     22  C   UNL     1      -5.310   4.480 -24.750  0.00  0.00    +0.277 C 
ATOM     23  O   UNL     1      -5.508   3.860 -23.626  0.00  0.00    -0.495 OA
ENDBRANCH   1  23
TORSDOF 1
ENDMDL
MODEL 5
REMARK VINA RESULT:    -9.071      1.932      6.792
REMARK INTER + INTRA:          -9.680
REMARK INTER:                  -9.609
REMARK INTRA:                  -0.070
REMARK UNBOUND:                -0.078
REMARK  Name = ZINC000001715690
REMARK  5 active torsions:
REMARK  status: ('A' for Active; 'I' for Inactive)
REMARK    1  A    between atoms: C_1  and  O_2
REMARK    2  A    between atoms: O_2  and  C_3
REMARK    3  A    between atoms: C_11  and  C_12
REMARK    4  A    between atoms: C_18  and  C_19
REMARK    5  A    between atoms: C_18  and  C_20
REMARK                            x       y       z     vdW  Elec       q    Type
REMARK                         _______ _______ _______ _____ _____    ______ ____
ROOT
ATOM      1  C   UNL     1      -2.563   2.970 -22.471  0.00  0.00    +0.121 A 
ATOM      2  C   UNL     1      -2.616   4.135 -23.047  0.00  0.00    +0.047 A 
ATOM      3  C   UNL     1      -1.516   4.750 -23.371  0.00  0.00    +0.030 A 
ATOM      4  C   UNL     1      -0.365   4.200 -23.119  0.00  0.00    +0.048 A 
ATOM      5  N   UNL     1       0.853   4.595 -23.336  0.00  0.00    -0.354 N 
ATOM      6  H   UNL     1       1.120   5.443 -23.761  0.00  0.00    +0.166 HD
ATOM      7  C   UNL     1       1.659   3.676 -22.895  0.00  0.00    +0.058 A 
ATOM      8  C   UNL     1       2.956   3.592 -22.876  0.00  0.00    +0.041 A 
ATOM      9  C   UNL     1       3.532   2.543 -22.367  0.00  0.00    +0.134 A 
ATOM     10  O   UNL     1       4.829   2.459 -22.348  0.00  0.00    -0.481 OA
ATOM     11  C   UNL     1       5.551   3.423 -22.838  0.00  0.00    +0.124 C 
ATOM     12  C   UNL     1       4.975   4.471 -23.347  0.00  0.00    +0.020 C 
ATOM     13  C   UNL     1       6.490   2.611 -22.452  0.00  0.00    +0.060 C 
ATOM     14  C   UNL     1       6.598   4.105 -23.194  0.00  0.00    +0.060 C 
ATOM     15  C   UNL     1       2.811   1.579 -21.876  0.00  0.00    -0.007 A 
ATOM     16  C   UNL     1       1.513   1.663 -21.895  0.00  0.00    +0.017 A 
ATOM     17  C   UNL     1       3.386   0.530 -21.367  0.00  0.00    +0.047 C 
ATOM     18  C   UNL     1       3.678   4.556 -23.366  0.00  0.00    +0.013 C 
ATOM     19  C   UNL     1       0.938   2.712 -22.405  0.00  0.00    +0.009 A 
ATOM     20  C   UNL     1      -0.313   3.036 -22.543  0.00  0.00    +0.011 A 
ATOM     21  C   UNL     1      -1.413   2.421 -22.219  0.00  0.00    +0.056 A 
ENDROOT
BRANCH   1  23
ATOM     22  C   UNL     1      -4.687   3.034 -21.727  0.00  0.00    +0.277 C 
ATOM     23  O   UNL     1      -3.662   2.356 -22.148  0.00  0.00    -0.495 OA
ENDBRANCH   1  23
TORSDOF 1
ENDMDL
MODEL 6
REMARK VINA RESULT:    -7.924      2.534      3.963
REMARK INTER + INTRA:          -8.465
REMARK INTER:                  -8.389
REMARK INTRA:                  -0.075
REMARK UNBOUND:                -0.078
REMARK  Name = ZINC000001715690
REMARK  5 active torsions:
REMARK  status: ('A' for Active; 'I' for Inactive)
REMARK    1  A    between atoms: C_1  and  O_2
REMARK    2  A    between atoms: O_2  and  C_3
REMARK    3  A    between atoms: C_11  and  C_12
REMARK    4  A    between atoms: C_18  and  C_19
REMARK    5  A    between atoms: C_18  and  C_20
REMARK                            x       y       z     vdW  Elec       q    Type
REMARK                         _______ _______ _______ _____ _____    ______ ____
ROOT
ATOM      1  C   UNL     1       6.212   3.714 -23.287  0.00  0.00    +0.121 A 
ATOM      2  C   UNL     1       6.482   2.637 -22.610  0.00  0.00    +0.047 A 
ATOM      3  C   UNL     1       5.517   1.934 -22.094  0.00  0.00    +0.030 A 
ATOM      4  C   UNL     1       4.282   2.309 -22.255  0.00  0.00    +0.048 A 
ATOM      5  N   UNL     1       3.158   1.797 -21.851  0.00  0.00    -0.354 N 
ATOM      6  H   UNL     1       3.055   0.977 -21.316  0.00  0.00    +0.166 HD
ATOM      7  C   UNL     1       2.194   2.557 -22.278  0.00  0.00    +0.058 A 
ATOM      8  C   UNL     1       0.903   2.481 -22.145  0.00  0.00    +0.041 A 
ATOM      9  C   UNL     1       0.140   3.388 -22.679  0.00  0.00    +0.134 A 
ATOM     10  O   UNL     1      -1.151   3.313 -22.546  0.00  0.00    -0.481 OA
ATOM     11  C   UNL     1      -1.680   2.331 -21.879  0.00  0.00    +0.124 C 
ATOM     12  C   UNL     1      -0.917   1.424 -21.344  0.00  0.00    +0.020 C 
ATOM     13  C   UNL     1      -2.755   2.974 -22.223  0.00  0.00    +0.060 C 
ATOM     14  C   UNL     1      -2.581   1.572 -21.330  0.00  0.00    +0.060 C 
ATOM     15  C   UNL     1       0.669   4.371 -23.348  0.00  0.00    -0.007 A 
ATOM     16  C   UNL     1       1.960   4.446 -23.481  0.00  0.00    +0.017 A 
ATOM     17  C   UNL     1      -0.094   5.278 -23.882  0.00  0.00    +0.047 C 
ATOM     18  C   UNL     1       0.374   1.499 -21.477  0.00  0.00    +0.013 C 
ATOM     19  C   UNL     1       2.722   3.539 -22.946  0.00  0.00    +0.009 A 
ATOM     20  C   UNL     1       4.013   3.386 -22.932  0.00  0.00    +0.011 A 
ATOM     21  C   UNL     1       4.979   4.088 -23.448  0.00  0.00    +0.056 A 
ENDROOT
BRANCH   1  23
ATOM     22  C   UNL     1       7.567   5.512 -23.224  0.00  0.00    +0.277 C 
ATOM     23  O   UNL     1       7.178   4.415 -23.803  0.00  0.00    -0.495 OA
ENDBRANCH   1  23
TORSDOF 1
ENDMDL
MODEL 7
REMARK VINA RESULT:    -7.829      3.044      7.390
REMARK INTER + INTRA:          -8.364
REMARK INTER:                  -8.294
REMARK INTRA:                  -0.070
REMARK UNBOUND:                -0.078
REMARK  Name = ZINC000001715690
REMARK  5 active torsions:
REMARK  status: ('A' for Active; 'I' for Inactive)
REMARK    1  A    between atoms: C_1  and  O_2
REMARK    2  A    between atoms: O_2  and  C_3
REMARK    3  A    between atoms: C_11  and  C_12
REMARK    4  A    between atoms: C_18  and  C_19
REMARK    5  A    between atoms: C_18  and  C_20
REMARK                            x       y       z     vdW  Elec       q    Type
REMARK                         _______ _______ _______ _____ _____    ______ ____
ROOT
ATOM      1  C   UNL     1      -1.199   3.226 -23.919  0.00  0.00    +0.121 A 
ATOM      2  C   UNL     1      -1.468   4.496 -23.837  0.00  0.00    +0.047 A 
ATOM      3  C   UNL     1      -0.519   5.346 -23.575  0.00  0.00    +0.030 A 
ATOM      4  C   UNL     1       0.698   4.926 -23.394  0.00  0.00    +0.048 A 
ATOM      5  N   UNL     1       1.804   5.554 -23.125  0.00  0.00    -0.354 N 
ATOM      6  H   UNL     1       1.903   6.527 -23.007  0.00  0.00    +0.166 HD
ATOM      7  C   UNL     1       2.756   4.673 -23.041  0.00  0.00    +0.058 A 
ATOM      8  C   UNL     1       4.027   4.788 -22.795  0.00  0.00    +0.041 A 
ATOM      9  C   UNL     1       4.781   3.729 -22.765  0.00  0.00    +0.134 A 
ATOM     10  O   UNL     1       6.053   3.843 -22.519  0.00  0.00    -0.481 OA
ATOM     11  C   UNL     1       6.571   5.016 -22.303  0.00  0.00    +0.124 C 
ATOM     12  C   UNL     1       5.817   6.075 -22.332  0.00  0.00    +0.020 C 
ATOM     13  C   UNL     1       7.632   4.275 -22.184  0.00  0.00    +0.060 C 
ATOM     14  C   UNL     1       7.457   5.931 -22.045  0.00  0.00    +0.060 C 
ATOM     15  C   UNL     1       4.264   2.556 -22.982  0.00  0.00    -0.007 A 
ATOM     16  C   UNL     1       2.992   2.442 -23.228  0.00  0.00    +0.017 A 
ATOM     17  C   UNL     1       5.018   1.497 -22.952  0.00  0.00    +0.047 C 
ATOM     18  C   UNL     1       4.545   5.961 -22.578  0.00  0.00    +0.013 C 
ATOM     19  C   UNL     1       2.238   3.501 -23.257  0.00  0.00    +0.009 A 
ATOM     20  C   UNL     1       0.967   3.657 -23.475  0.00  0.00    +0.011 A 
ATOM     21  C   UNL     1       0.018   2.807 -23.738  0.00  0.00    +0.056 A 
ENDROOT
BRANCH   1  23
ATOM     22  C   UNL     1      -3.101   2.700 -25.002  0.00  0.00    +0.277 C 
ATOM     23  O   UNL     1      -2.147   2.377 -24.181  0.00  0.00    -0.495 OA
ENDBRANCH   1  23
TORSDOF 1
ENDMDL
