MODEL 1
REMARK VINA RESULT:    -9.114      0.000      0.000
REMARK INTER + INTRA:         -10.329
REMARK INTER:                 -10.060
REMARK INTRA:                  -0.269
REMARK UNBOUND:                 0.383
REMARK  Name = ZINC000014650526
REMARK  5 active torsions:
REMARK  status: ('A' for Active; 'I' for Inactive)
REMARK    1  A    between atoms: C_2  and  C_3
REMARK    2  A    between atoms: C_2  and  C_4
REMARK    3  A    between atoms: C_6  and  C_7
REMARK    4  A    between atoms: C_8  and  O_9
REMARK    5  A    between atoms: O_9  and  C_10
REMARK                            x       y       z     vdW  Elec       q    Type
REMARK                         _______ _______ _______ _____ _____    ______ ____
ROOT
ATOM      1  C   UNL     1      -0.424   2.786 -23.321  0.00  0.00    +0.068 A 
ATOM      2  C   UNL     1      -1.052   3.201 -24.380  0.00  0.00    +0.129 A 
ATOM      3  C   UNL     1      -0.388   3.726 -25.367  0.00  0.00    +0.047 A 
ATOM      4  C   UNL     1       0.905   3.837 -25.293  0.00  0.00    +0.015 A 
ATOM      5  C   UNL     1       1.534   3.422 -24.234  0.00  0.00    +0.018 A 
ATOM      6  C   UNL     1       2.826   3.533 -24.161  0.00  0.00    +0.018 A 
ATOM      7  C   UNL     1       3.456   3.118 -23.101  0.00  0.00    +0.092 A 
ATOM      8  C   UNL     1       2.792   2.593 -22.115  0.00  0.00    +0.337 A 
ATOM      9  O   UNL     1       1.498   2.482 -22.188  0.00  0.00    -0.422 OA
ATOM     10  O   UNL     1       3.420   2.178 -21.055  0.00  0.00    -0.245 OA
ATOM     11  C   UNL     1       0.869   2.897 -23.248  0.00  0.00    +0.148 A 
ENDROOT
BRANCH   1  14
ATOM     12  C   UNL     1      -2.071   2.311 -21.485  0.00  0.00    +0.178 C 
ATOM     13  O   UNL     1      -1.255   1.299 -21.475  0.00  0.00    -0.358 OA
ATOM     14  C   UNL     1      -1.088   2.261 -22.335  0.00  0.00    +0.189 C 
BRANCH  12  16
ATOM     15  C   UNL     1      -2.963   3.801 -20.051  0.00  0.00    +0.010 C 
ATOM     16  C   UNL     1      -3.110   2.924 -21.001  0.00  0.00    -0.049 C 
ATOM     17  C   UNL     1      -4.295   2.662 -21.466  0.00  0.00    +0.041 C 
ENDBRANCH  12  16
ENDBRANCH   1  14
BRANCH   2  18
ATOM     18  O   UNL     1      -2.346   3.090 -24.453  0.00  0.00    -0.495 OA
ATOM     19  C   UNL     1      -3.068   4.116 -24.793  0.00  0.00    +0.277 C 
ENDBRANCH   2  18
TORSDOF 3
ENDMDL
MODEL 2
REMARK VINA RESULT:    -8.698      1.778      5.616
REMARK INTER + INTRA:          -9.840
REMARK INTER:                  -9.593
REMARK INTRA:                  -0.247
REMARK UNBOUND:                 0.383
REMARK  Name = ZINC000014650526
REMARK  5 active torsions:
REMARK  status: ('A' for Active; 'I' for Inactive)
REMARK    1  A    between atoms: C_2  and  C_3
REMARK    2  A    between atoms: C_2  and  C_4
REMARK    3  A    between atoms: C_6  and  C_7
REMARK    4  A    between atoms: C_8  and  O_9
REMARK    5  A    between atoms: O_9  and  C_10
REMARK                            x       y       z     vdW  Elec       q    Type
REMARK                         _______ _______ _______ _____ _____    ______ ____
ROOT
ATOM      1  C   UNL     1      -2.693   3.151 -22.922  0.00  0.00    +0.068 A 
ATOM      2  C   UNL     1      -3.333   3.195 -21.792  0.00  0.00    +0.129 A 
ATOM      3  C   UNL     1      -4.615   3.414 -21.779  0.00  0.00    +0.047 A 
ATOM      4  C   UNL     1      -5.255   3.591 -22.896  0.00  0.00    +0.015 A 
ATOM      5  C   UNL     1      -4.614   3.548 -24.026  0.00  0.00    +0.018 A 
ATOM      6  C   UNL     1      -5.255   3.724 -25.143  0.00  0.00    +0.018 A 
ATOM      7  C   UNL     1      -4.614   3.681 -26.274  0.00  0.00    +0.092 A 
ATOM      8  C   UNL     1      -3.333   3.461 -26.287  0.00  0.00    +0.337 A 
ATOM      9  O   UNL     1      -2.692   3.285 -25.169  0.00  0.00    -0.422 OA
ATOM     10  O   UNL     1      -2.692   3.418 -27.417  0.00  0.00    -0.245 OA
ATOM     11  C   UNL     1      -3.333   3.328 -24.039  0.00  0.00    +0.148 A 
ENDROOT
BRANCH   1  14
ATOM     12  C   UNL     1      -0.214   3.269 -23.314  0.00  0.00    +0.178 C 
ATOM     13  O   UNL     1      -0.388   2.212 -22.578  0.00  0.00    -0.358 OA
ATOM     14  C   UNL     1      -1.411   2.931 -22.935  0.00  0.00    +0.189 C 
BRANCH  12  16
ATOM     15  C   UNL     1       1.235   4.992 -23.314  0.00  0.00    +0.010 C 
ATOM     16  C   UNL     1       0.577   4.074 -23.958  0.00  0.00    -0.049 C 
ATOM     17  C   UNL     1       0.711   3.962 -25.247  0.00  0.00    +0.041 C 
ENDBRANCH  12  16
ENDBRANCH   1  14
BRANCH   2  18
ATOM     18  O   UNL     1      -2.692   3.018 -20.674  0.00  0.00    -0.495 OA
ATOM     19  C   UNL     1      -2.989   3.739 -19.634  0.00  0.00    +0.277 C 
ENDBRANCH   2  18
TORSDOF 3
ENDMDL
MODEL 3
REMARK VINA RESULT:    -8.692      1.602      5.935
REMARK INTER + INTRA:          -9.833
REMARK INTER:                  -9.902
REMARK INTRA:                   0.069
REMARK UNBOUND:                 0.383
REMARK  Name = ZINC000014650526
REMARK  5 active torsions:
REMARK  status: ('A' for Active; 'I' for Inactive)
REMARK    1  A    between atoms: C_2  and  C_3
REMARK    2  A    between atoms: C_2  and  C_4
REMARK    3  A    between atoms: C_6  and  C_7
REMARK    4  A    between atoms: C_8  and  O_9
REMARK    5  A    between atoms: O_9  and  C_10
REMARK                            x       y       z     vdW  Elec       q    Type
REMARK                         _______ _______ _______ _____ _____    ______ ____
ROOT
ATOM      1  C   UNL     1      -1.714   3.211 -23.071  0.00  0.00    +0.068 A 
ATOM      2  C   UNL     1      -1.313   2.716 -21.938  0.00  0.00    +0.129 A 
ATOM      3  C   UNL     1      -2.175   2.458 -20.999  0.00  0.00    +0.047 A 
ATOM      4  C   UNL     1      -3.438   2.695 -21.194  0.00  0.00    +0.015 A 
ATOM      5  C   UNL     1      -3.839   3.190 -22.327  0.00  0.00    +0.018 A 
ATOM      6  C   UNL     1      -5.102   3.428 -22.521  0.00  0.00    +0.018 A 
ATOM      7  C   UNL     1      -5.503   3.923 -23.655  0.00  0.00    +0.092 A 
ATOM      8  C   UNL     1      -4.642   4.181 -24.593  0.00  0.00    +0.337 A 
ATOM      9  O   UNL     1      -3.378   3.943 -24.398  0.00  0.00    -0.422 OA
ATOM     10  O   UNL     1      -5.042   4.676 -25.726  0.00  0.00    -0.245 OA
ATOM     11  C   UNL     1      -2.977   3.448 -23.265  0.00  0.00    +0.148 A 
ENDROOT
BRANCH   1  14
ATOM     12  C   UNL     1       0.357   3.778 -24.374  0.00  0.00    +0.178 C 
ATOM     13  O   UNL     1      -0.568   3.607 -25.271  0.00  0.00    -0.358 OA
ATOM     14  C   UNL     1      -0.852   3.469 -24.009  0.00  0.00    +0.189 C 
BRANCH  12  16
ATOM     15  C   UNL     1       1.888   5.215 -23.559  0.00  0.00    +0.010 C 
ATOM     16  C   UNL     1       1.590   4.055 -24.066  0.00  0.00    -0.049 C 
ATOM     17  C   UNL     1       2.524   3.173 -24.266  0.00  0.00    +0.041 C 
ENDBRANCH  12  16
ENDBRANCH   1  14
BRANCH   2  18
ATOM     18  O   UNL     1      -0.049   2.478 -21.743  0.00  0.00    -0.495 OA
ATOM     19  C   UNL     1       0.322   1.384 -21.148  0.00  0.00    +0.277 C 
ENDBRANCH   2  18
TORSDOF 3
ENDMDL
MODEL 4
REMARK VINA RESULT:    -8.635      1.866      3.590
REMARK INTER + INTRA:          -9.767
REMARK INTER:                  -9.528
REMARK INTRA:                  -0.238
REMARK UNBOUND:                 0.383
REMARK  Name = ZINC000014650526
REMARK  5 active torsions:
REMARK  status: ('A' for Active; 'I' for Inactive)
REMARK    1  A    between atoms: C_2  and  C_3
REMARK    2  A    between atoms: C_2  and  C_4
REMARK    3  A    between atoms: C_6  and  C_7
REMARK    4  A    between atoms: C_8  and  O_9
REMARK    5  A    between atoms: O_9  and  C_10
REMARK                            x       y       z     vdW  Elec       q    Type
REMARK                         _______ _______ _______ _____ _____    ______ ____
ROOT
ATOM      1  C   UNL     1      -1.365   3.092 -22.842  0.00  0.00    +0.068 A 
ATOM      2  C   UNL     1      -1.821   2.674 -21.699  0.00  0.00    +0.129 A 
ATOM      3  C   UNL     1      -1.101   1.880 -20.963  0.00  0.00    +0.047 A 
ATOM      4  C   UNL     1       0.074   1.504 -21.371  0.00  0.00    +0.015 A 
ATOM      5  C   UNL     1       0.530   1.922 -22.514  0.00  0.00    +0.018 A 
ATOM      6  C   UNL     1       1.705   1.545 -22.922  0.00  0.00    +0.018 A 
ATOM      7  C   UNL     1       2.161   1.963 -24.066  0.00  0.00    +0.092 A 
ATOM      8  C   UNL     1       1.441   2.757 -24.802  0.00  0.00    +0.337 A 
ATOM      9  O   UNL     1       0.265   3.133 -24.394  0.00  0.00    -0.422 OA
ATOM     10  O   UNL     1       1.896   3.174 -25.946  0.00  0.00    -0.245 OA
ATOM     11  C   UNL     1      -0.190   2.715 -23.250  0.00  0.00    +0.148 A 
ENDROOT
BRANCH   1  14
ATOM     12  C   UNL     1      -3.192   4.139 -24.213  0.00  0.00    +0.178 C 
ATOM     13  O   UNL     1      -2.226   5.009 -24.219  0.00  0.00    -0.358 OA
ATOM     14  C   UNL     1      -2.085   3.886 -23.578  0.00  0.00    +0.189 C 
BRANCH  12  16
ATOM     15  C   UNL     1      -4.607   3.383 -25.793  0.00  0.00    +0.010 C 
ATOM     16  C   UNL     1      -4.388   3.783 -24.575  0.00  0.00    -0.049 C 
ATOM     17  C   UNL     1      -5.367   3.826 -23.720  0.00  0.00    +0.041 C 
ENDBRANCH  12  16
ENDBRANCH   1  14
BRANCH   2  18
ATOM     18  O   UNL     1      -2.997   3.051 -21.291  0.00  0.00    -0.495 OA
ATOM     19  C   UNL     1      -3.112   3.761 -20.208  0.00  0.00    +0.277 C 
ENDBRANCH   2  18
TORSDOF 3
ENDMDL
MODEL 5
REMARK VINA RESULT:    -8.532      1.646      4.945
REMARK INTER + INTRA:          -9.645
REMARK INTER:                  -9.879
REMARK INTRA:                   0.234
REMARK UNBOUND:                 0.383
REMARK  Name = ZINC000014650526
REMARK  5 active torsions:
REMARK  status: ('A' for Active; 'I' for Inactive)
REMARK    1  A    between atoms: C_2  and  C_3
REMARK    2  A    between atoms: C_2  and  C_4
REMARK    3  A    between atoms: C_6  and  C_7
REMARK    4  A    between atoms: C_8  and  O_9
REMARK    5  A    between atoms: O_9  and  C_10
REMARK                            x       y       z     vdW  Elec       q    Type
REMARK                         _______ _______ _______ _____ _____    ______ ____
ROOT
ATOM      1  C   UNL     1      -1.150   2.553 -23.206  0.00  0.00    +0.068 A 
ATOM      2  C   UNL     1      -0.680   2.982 -24.339  0.00  0.00    +0.129 A 
ATOM      3  C   UNL     1      -1.448   3.647 -25.151  0.00  0.00    +0.047 A 
ATOM      4  C   UNL     1      -2.685   3.882 -24.830  0.00  0.00    +0.015 A 
ATOM      5  C   UNL     1      -3.154   3.453 -23.697  0.00  0.00    +0.018 A 
ATOM      6  C   UNL     1      -4.391   3.689 -23.375  0.00  0.00    +0.018 A 
ATOM      7  C   UNL     1      -4.862   3.260 -22.241  0.00  0.00    +0.092 A 
ATOM      8  C   UNL     1      -4.095   2.595 -21.429  0.00  0.00    +0.337 A 
ATOM      9  O   UNL     1      -2.857   2.360 -21.751  0.00  0.00    -0.422 OA
ATOM     10  O   UNL     1      -4.565   2.166 -20.296  0.00  0.00    -0.245 OA
ATOM     11  C   UNL     1      -2.387   2.789 -22.885  0.00  0.00    +0.148 A 
ENDROOT
BRANCH   1  14
ATOM     12  C   UNL     1       0.804   1.509 -22.023  0.00  0.00    +0.178 C 
ATOM     13  O   UNL     1      -0.241   1.116 -21.357  0.00  0.00    -0.358 OA
ATOM     14  C   UNL     1      -0.383   1.888 -22.394  0.00  0.00    +0.189 C 
BRANCH  12  16
ATOM     15  C   UNL     1       2.753   2.635 -22.108  0.00  0.00    +0.010 C 
ATOM     16  C   UNL     1       2.093   1.518 -22.192  0.00  0.00    -0.049 C 
ATOM     17  C   UNL     1       2.723   0.409 -22.447  0.00  0.00    +0.041 C 
ENDBRANCH  12  16
ENDBRANCH   1  14
BRANCH   2  18
ATOM     18  O   UNL     1       0.558   2.746 -24.661  0.00  0.00    -0.495 OA
ATOM     19  C   UNL     1       1.198   3.574 -25.432  0.00  0.00    +0.277 C 
ENDBRANCH   2  18
TORSDOF 3
ENDMDL
MODEL 6
REMARK VINA RESULT:    -8.238      1.131      4.286
REMARK INTER + INTRA:          -9.300
REMARK INTER:                  -9.243
REMARK INTRA:                  -0.057
REMARK UNBOUND:                 0.383
REMARK  Name = ZINC000014650526
REMARK  5 active torsions:
REMARK  status: ('A' for Active; 'I' for Inactive)
REMARK    1  A    between atoms: C_2  and  C_3
REMARK    2  A    between atoms: C_2  and  C_4
REMARK    3  A    between atoms: C_6  and  C_7
REMARK    4  A    between atoms: C_8  and  O_9
REMARK    5  A    between atoms: O_9  and  C_10
REMARK                            x       y       z     vdW  Elec       q    Type
REMARK                         _______ _______ _______ _____ _____    ______ ____
ROOT
ATOM      1  C   UNL     1      -1.025   2.658 -23.442  0.00  0.00    +0.068 A 
ATOM      2  C   UNL     1       0.251   2.691 -23.684  0.00  0.00    +0.129 A 
ATOM      3  C   UNL     1       0.685   3.124 -24.830  0.00  0.00    +0.047 A 
ATOM      4  C   UNL     1      -0.158   3.525 -25.734  0.00  0.00    +0.015 A 
ATOM      5  C   UNL     1      -1.435   3.492 -25.492  0.00  0.00    +0.018 A 
ATOM      6  C   UNL     1      -2.278   3.893 -26.397  0.00  0.00    +0.018 A 
ATOM      7  C   UNL     1      -3.555   3.861 -26.155  0.00  0.00    +0.092 A 
ATOM      8  C   UNL     1      -3.989   3.427 -25.009  0.00  0.00    +0.337 A 
ATOM      9  O   UNL     1      -3.145   3.026 -24.104  0.00  0.00    -0.422 OA
ATOM     10  O   UNL     1      -5.265   3.395 -24.766  0.00  0.00    -0.245 OA
ATOM     11  C   UNL     1      -1.868   3.059 -24.346  0.00  0.00    +0.148 A 
ENDROOT
BRANCH   1  14
ATOM     12  C   UNL     1      -2.302   2.300 -21.308  0.00  0.00    +0.178 C 
ATOM     13  O   UNL     1      -1.367   1.397 -21.296  0.00  0.00    -0.358 OA
ATOM     14  C   UNL     1      -1.459   2.224 -22.295  0.00  0.00    +0.189 C 
BRANCH  12  16
ATOM     15  C   UNL     1      -4.528   2.429 -20.992  0.00  0.00    +0.010 C 
ATOM     16  C   UNL     1      -3.328   2.865 -20.745  0.00  0.00    -0.049 C 
ATOM     17  C   UNL     1      -3.156   3.867 -19.935  0.00  0.00    +0.041 C 
ENDBRANCH  12  16
ENDBRANCH   1  14
BRANCH   2  18
ATOM     18  O   UNL     1       1.095   2.289 -22.778  0.00  0.00    -0.495 OA
ATOM     19  C   UNL     1       2.288   1.908 -23.126  0.00  0.00    +0.277 C 
ENDBRANCH   2  18
TORSDOF 3
ENDMDL
MODEL 7
REMARK VINA RESULT:    -8.212      1.536      5.608
REMARK INTER + INTRA:          -9.269
REMARK INTER:                  -8.942
REMARK INTRA:                  -0.327
REMARK UNBOUND:                 0.383
REMARK  Name = ZINC000014650526
REMARK  5 active torsions:
REMARK  status: ('A' for Active; 'I' for Inactive)
REMARK    1  A    between atoms: C_2  and  C_3
REMARK    2  A    between atoms: C_2  and  C_4
REMARK    3  A    between atoms: C_6  and  C_7
REMARK    4  A    between atoms: C_8  and  O_9
REMARK    5  A    between atoms: O_9  and  C_10
REMARK                            x       y       z     vdW  Elec       q    Type
REMARK                         _______ _______ _______ _____ _____    ______ ____
ROOT
ATOM      1  C   UNL     1       0.141   2.639 -22.971  0.00  0.00    +0.068 A 
ATOM      2  C   UNL     1       0.540   1.761 -22.100  0.00  0.00    +0.129 A 
ATOM      3  C   UNL     1      -0.322   1.188 -21.313  0.00  0.00    +0.047 A 
ATOM      4  C   UNL     1      -1.582   1.493 -21.397  0.00  0.00    +0.015 A 
ATOM      5  C   UNL     1      -1.981   2.371 -22.269  0.00  0.00    +0.018 A 
ATOM      6  C   UNL     1      -3.242   2.676 -22.353  0.00  0.00    +0.018 A 
ATOM      7  C   UNL     1      -3.641   3.555 -23.225  0.00  0.00    +0.092 A 
ATOM      8  C   UNL     1      -2.779   4.128 -24.012  0.00  0.00    +0.337 A 
ATOM      9  O   UNL     1      -1.518   3.823 -23.927  0.00  0.00    -0.422 OA
ATOM     10  O   UNL     1      -3.178   5.006 -24.883  0.00  0.00    -0.245 OA
ATOM     11  C   UNL     1      -1.119   2.944 -23.056  0.00  0.00    +0.148 A 
ENDROOT
BRANCH   1  14
ATOM     12  C   UNL     1       2.081   3.921 -23.922  0.00  0.00    +0.178 C 
ATOM     13  O   UNL     1       1.418   3.496 -24.957  0.00  0.00    -0.358 OA
ATOM     14  C   UNL     1       1.003   3.212 -23.758  0.00  0.00    +0.189 C 
BRANCH  12  16
ATOM     15  C   UNL     1       2.920   5.794 -22.995  0.00  0.00    +0.010 C 
ATOM     16  C   UNL     1       3.085   4.576 -23.420  0.00  0.00    -0.049 C 
ATOM     17  C   UNL     1       4.254   4.013 -23.341  0.00  0.00    +0.041 C 
ENDBRANCH  12  16
ENDBRANCH   1  14
BRANCH   2  18
ATOM     18  O   UNL     1       1.802   1.456 -22.015  0.00  0.00    -0.495 OA
ATOM     19  C   UNL     1       2.413   1.531 -20.870  0.00  0.00    +0.277 C 
ENDBRANCH   2  18
TORSDOF 3
ENDMDL
MODEL 8
REMARK VINA RESULT:    -8.056      1.821      5.378
REMARK INTER + INTRA:          -9.086
REMARK INTER:                  -9.469
REMARK INTRA:                   0.383
REMARK UNBOUND:                 0.383
REMARK  Name = ZINC000014650526
REMARK  5 active torsions:
REMARK  status: ('A' for Active; 'I' for Inactive)
REMARK    1  A    between atoms: C_2  and  C_3
REMARK    2  A    between atoms: C_2  and  C_4
REMARK    3  A    between atoms: C_6  and  C_7
REMARK    4  A    between atoms: C_8  and  O_9
REMARK    5  A    between atoms: O_9  and  C_10
REMARK                            x       y       z     vdW  Elec       q    Type
REMARK                         _______ _______ _______ _____ _____    ______ ____
ROOT
ATOM      1  C   UNL     1      -1.292   2.664 -23.489  0.00  0.00    +0.068 A 
ATOM      2  C   UNL     1      -0.141   2.173 -23.136  0.00  0.00    +0.129 A 
ATOM      3  C   UNL     1       0.010   1.652 -21.955  0.00  0.00    +0.047 A 
ATOM      4  C   UNL     1      -0.991   1.622 -21.126  0.00  0.00    +0.015 A 
ATOM      5  C   UNL     1      -2.142   2.112 -21.479  0.00  0.00    +0.018 A 
ATOM      6  C   UNL     1      -3.142   2.082 -20.650  0.00  0.00    +0.018 A 
ATOM      7  C   UNL     1      -4.294   2.572 -21.002  0.00  0.00    +0.092 A 
ATOM      8  C   UNL     1      -4.445   3.093 -22.184  0.00  0.00    +0.337 A 
ATOM      9  O   UNL     1      -3.443   3.124 -23.013  0.00  0.00    -0.422 OA
ATOM     10  O   UNL     1      -5.596   3.584 -22.537  0.00  0.00    -0.245 OA
ATOM     11  C   UNL     1      -2.292   2.633 -22.660  0.00  0.00    +0.148 A 
ENDROOT
BRANCH   1  14
ATOM     12  C   UNL     1      -2.218   3.617 -25.621  0.00  0.00    +0.178 C 
ATOM     13  O   UNL     1      -0.927   3.655 -25.768  0.00  0.00    -0.358 OA
ATOM     14  C   UNL     1      -1.442   3.185 -24.671  0.00  0.00    +0.189 C 
BRANCH  12  16
ATOM     15  C   UNL     1      -3.868   3.137 -27.076  0.00  0.00    +0.010 C 
ATOM     16  C   UNL     1      -3.411   3.844 -26.084  0.00  0.00    -0.049 C 
ATOM     17  C   UNL     1      -4.146   4.777 -25.557  0.00  0.00    +0.041 C 
ENDBRANCH  12  16
ENDBRANCH   1  14
BRANCH   2  18
ATOM     18  O   UNL     1       0.861   2.204 -23.966  0.00  0.00    -0.495 OA
ATOM     19  C   UNL     1       2.069   1.995 -23.534  0.00  0.00    +0.277 C 
ENDBRANCH   2  18
TORSDOF 3
ENDMDL
MODEL 9
REMARK VINA RESULT:    -7.984      1.167      3.741
REMARK INTER + INTRA:          -9.001
REMARK INTER:                  -8.911
REMARK INTRA:                  -0.090
REMARK UNBOUND:                 0.383
REMARK  Name = ZINC000014650526
REMARK  5 active torsions:
REMARK  status: ('A' for Active; 'I' for Inactive)
REMARK    1  A    between atoms: C_2  and  C_3
REMARK    2  A    between atoms: C_2  and  C_4
REMARK    3  A    between atoms: C_6  and  C_7
REMARK    4  A    between atoms: C_8  and  O_9
REMARK    5  A    between atoms: O_9  and  C_10
REMARK                            x       y       z     vdW  Elec       q    Type
REMARK                         _______ _______ _______ _____ _____    ______ ____
ROOT
ATOM      1  C   UNL     1       0.871   2.077 -22.474  0.00  0.00    +0.068 A 
ATOM      2  C   UNL     1       2.071   1.835 -22.037  0.00  0.00    +0.129 A 
ATOM      3  C   UNL     1       3.104   2.199 -22.737  0.00  0.00    +0.047 A 
ATOM      4  C   UNL     1       2.937   2.805 -23.875  0.00  0.00    +0.015 A 
ATOM      5  C   UNL     1       1.737   3.047 -24.312  0.00  0.00    +0.018 A 
ATOM      6  C   UNL     1       1.570   3.653 -25.450  0.00  0.00    +0.018 A 
ATOM      7  C   UNL     1       0.370   3.895 -25.888  0.00  0.00    +0.092 A 
ATOM      8  C   UNL     1      -0.663   3.531 -25.188  0.00  0.00    +0.337 A 
ATOM      9  O   UNL     1      -0.496   2.925 -24.049  0.00  0.00    -0.422 OA
ATOM     10  O   UNL     1      -1.863   3.773 -25.625  0.00  0.00    -0.245 OA
ATOM     11  C   UNL     1       0.704   2.683 -23.612  0.00  0.00    +0.148 A 
ENDROOT
BRANCH   1  14
ATOM     12  C   UNL     1      -1.356   1.954 -21.319  0.00  0.00    +0.178 C 
ATOM     13  O   UNL     1      -0.758   0.841 -21.015  0.00  0.00    -0.358 OA
ATOM     14  C   UNL     1      -0.162   1.713 -21.774  0.00  0.00    +0.189 C 
BRANCH  12  16
ATOM     15  C   UNL     1      -2.241   4.025 -21.316  0.00  0.00    +0.010 C 
ATOM     16  C   UNL     1      -2.391   2.736 -21.231  0.00  0.00    -0.049 C 
ATOM     17  C   UNL     1      -3.576   2.230 -21.060  0.00  0.00    +0.041 C 
ENDBRANCH  12  16
ENDBRANCH   1  14
BRANCH   2  18
ATOM     18  O   UNL     1       2.237   1.229 -20.898  0.00  0.00    -0.495 OA
ATOM     19  C   UNL     1       3.389   0.702 -20.605  0.00  0.00    +0.277 C 
ENDBRANCH   2  18
TORSDOF 3
ENDMDL
