MODEL 1
REMARK VINA RESULT:   -12.105      0.000      0.000
REMARK INTER + INTRA:         -12.459
REMARK INTER:                 -12.459
REMARK INTRA:                   0.000
REMARK UNBOUND:                 0.000
REMARK  Name = ZINC000038329342
REMARK  3 active torsions:
REMARK  status: ('A' for Active; 'I' for Inactive)
REMARK    1  A    between atoms: C_1  and  C_2
REMARK    2  A    between atoms: C_12  and  O_13
REMARK    3  A    between atoms: C_16  and  C_17
REMARK                            x       y       z     vdW  Elec       q    Type
REMARK                         _______ _______ _______ _____ _____    ______ ____
ROOT
ATOM      1  C   UNL     1      -4.840   2.884 -21.633  0.00  0.00    +0.019 C 
ATOM      2  C   UNL     1      -3.986   3.158 -22.573  0.00  0.00    +0.029 C 
ATOM      3  C   UNL     1      -3.467   2.553 -21.546  0.00  0.00    +0.015 C 
ATOM      4  C   UNL     1      -2.196   2.276 -21.529  0.00  0.00    +0.005 C 
ATOM      5  C   UNL     1      -1.446   2.606 -22.537  0.00  0.00    -0.001 C 
ATOM      6  C   UNL     1      -1.965   3.212 -23.564  0.00  0.00    +0.004 C 
ATOM      7  C   UNL     1      -1.214   3.542 -24.572  0.00  0.00    +0.078 C 
ATOM      8  C   UNL     1       0.056   3.266 -24.555  0.00  0.00    +0.137 C 
ATOM      9  C   UNL     1       0.576   2.660 -23.528  0.00  0.00    +0.064 C 
ATOM     10  C   UNL     1       1.845   2.384 -23.511  0.00  0.00    +0.043 C 
ATOM     11  C   UNL     1       2.365   1.778 -22.485  0.00  0.00    +0.115 C 
ATOM     12  C   UNL     1       1.614   1.448 -21.476  0.00  0.00    +0.032 C 
ATOM     13  C   UNL     1       0.344   1.724 -21.493  0.00  0.00    +0.010 C 
ATOM     14  O   UNL     1       0.807   3.596 -25.563  0.00  0.00    -0.297 OA
ATOM     15  C   UNL     1      -0.176   2.330 -22.520  0.00  0.00    -0.019 C 
ATOM     16  C   UNL     1      -0.926   2.000 -21.511  0.00  0.00    +0.012 C 
ATOM     17  C   UNL     1      -5.201   3.541 -22.834  0.00  0.00    +0.139 C 
ATOM     18  O   UNL     1      -6.235   3.385 -22.061  0.00  0.00    -0.297 OA
ATOM     19  C   UNL     1      -5.200   4.107 -24.004  0.00  0.00    +0.075 C 
ATOM     20  C   UNL     1      -3.986   4.075 -24.466  0.00  0.00    +0.012 C 
ATOM     21  C   UNL     1      -3.235   3.489 -23.581  0.00  0.00    +0.006 C 
ENDROOT
BRANCH  11  22
ATOM     22  O   UNL     1       3.635   1.502 -22.467  0.00  0.00    -0.392 OA
ATOM     23  H   UNL     1       3.756   0.543 -22.389  0.00  0.00    +0.210 HD
ENDBRANCH  11  22
TORSDOF 1
ENDMDL
MODEL 2
REMARK VINA RESULT:   -11.827      1.141      2.659
REMARK INTER + INTRA:         -12.173
REMARK INTER:                 -12.173
REMARK INTRA:                   0.000
REMARK UNBOUND:                 0.000
REMARK  Name = ZINC000038329342
REMARK  3 active torsions:
REMARK  status: ('A' for Active; 'I' for Inactive)
REMARK    1  A    between atoms: C_1  and  C_2
REMARK    2  A    between atoms: C_12  and  O_13
REMARK    3  A    between atoms: C_16  and  C_17
REMARK                            x       y       z     vdW  Elec       q    Type
REMARK                         _______ _______ _______ _____ _____    ______ ____
ROOT
ATOM      1  C   UNL     1      -4.537   3.782 -23.917  0.00  0.00    +0.019 C 
ATOM      2  C   UNL     1      -3.692   3.264 -23.077  0.00  0.00    +0.029 C 
ATOM      3  C   UNL     1      -3.168   3.594 -24.220  0.00  0.00    +0.015 C 
ATOM      4  C   UNL     1      -1.901   3.395 -24.437  0.00  0.00    +0.005 C 
ATOM      5  C   UNL     1      -1.159   2.866 -23.509  0.00  0.00    -0.001 C 
ATOM      6  C   UNL     1      -1.683   2.535 -22.367  0.00  0.00    +0.004 C 
ATOM      7  C   UNL     1      -0.941   2.006 -21.439  0.00  0.00    +0.078 C 
ATOM      8  C   UNL     1       0.325   1.807 -21.655  0.00  0.00    +0.137 C 
ATOM      9  C   UNL     1       0.850   2.137 -22.799  0.00  0.00    +0.064 C 
ATOM     10  C   UNL     1       2.116   1.938 -23.014  0.00  0.00    +0.043 C 
ATOM     11  C   UNL     1       2.640   2.268 -24.157  0.00  0.00    +0.115 C 
ATOM     12  C   UNL     1       1.898   2.798 -25.084  0.00  0.00    +0.032 C 
ATOM     13  C   UNL     1       0.632   2.997 -24.869  0.00  0.00    +0.010 C 
ATOM     14  O   UNL     1       1.067   1.278 -20.729  0.00  0.00    -0.297 OA
ATOM     15  C   UNL     1       0.107   2.666 -23.725  0.00  0.00    -0.019 C 
ATOM     16  C   UNL     1      -0.635   3.196 -24.652  0.00  0.00    +0.012 C 
ATOM     17  C   UNL     1      -4.904   3.355 -22.618  0.00  0.00    +0.139 C 
ATOM     18  O   UNL     1      -5.930   3.835 -23.256  0.00  0.00    -0.297 OA
ATOM     19  C   UNL     1      -4.912   2.883 -21.406  0.00  0.00    +0.075 C 
ATOM     20  C   UNL     1      -3.704   2.499 -21.118  0.00  0.00    +0.012 C 
ATOM     21  C   UNL     1      -2.950   2.734 -22.150  0.00  0.00    +0.006 C 
ENDROOT
BRANCH  11  22
ATOM     22  O   UNL     1       3.906   2.069 -24.373  0.00  0.00    -0.392 OA
ATOM     23  H   UNL     1       4.407   2.269 -23.567  0.00  0.00    +0.210 HD
ENDBRANCH  11  22
TORSDOF 1
ENDMDL
MODEL 3
REMARK VINA RESULT:   -11.582      1.152      5.517
REMARK INTER + INTRA:         -11.920
REMARK INTER:                 -11.920
REMARK INTRA:                   0.000
REMARK UNBOUND:                 0.000
REMARK  Name = ZINC000038329342
REMARK  3 active torsions:
REMARK  status: ('A' for Active; 'I' for Inactive)
REMARK    1  A    between atoms: C_1  and  C_2
REMARK    2  A    between atoms: C_12  and  O_13
REMARK    3  A    between atoms: C_16  and  C_17
REMARK                            x       y       z     vdW  Elec       q    Type
REMARK                         _______ _______ _______ _____ _____    ______ ____
ROOT
ATOM      1  C   UNL     1       1.669   2.025 -22.503  0.00  0.00    +0.019 C 
ATOM      2  C   UNL     1       0.808   2.614 -23.278  0.00  0.00    +0.029 C 
ATOM      3  C   UNL     1       0.291   2.119 -22.194  0.00  0.00    +0.015 C 
ATOM      4  C   UNL     1      -0.985   2.239 -21.968  0.00  0.00    +0.005 C 
ATOM      5  C   UNL     1      -1.741   2.855 -22.828  0.00  0.00    -0.001 C 
ATOM      6  C   UNL     1      -1.223   3.350 -23.913  0.00  0.00    +0.004 C 
ATOM      7  C   UNL     1      -1.980   3.965 -24.772  0.00  0.00    +0.078 C 
ATOM      8  C   UNL     1      -3.254   4.085 -24.548  0.00  0.00    +0.137 C 
ATOM      9  C   UNL     1      -3.773   3.590 -23.462  0.00  0.00    +0.064 C 
ATOM     10  C   UNL     1      -5.047   3.710 -23.237  0.00  0.00    +0.043 C 
ATOM     11  C   UNL     1      -5.565   3.215 -22.153  0.00  0.00    +0.115 C 
ATOM     12  C   UNL     1      -4.808   2.600 -21.293  0.00  0.00    +0.032 C 
ATOM     13  C   UNL     1      -3.534   2.480 -21.518  0.00  0.00    +0.010 C 
ATOM     14  O   UNL     1      -4.011   4.700 -25.407  0.00  0.00    -0.297 OA
ATOM     15  C   UNL     1      -3.015   2.975 -22.603  0.00  0.00    -0.019 C 
ATOM     16  C   UNL     1      -2.259   2.360 -21.743  0.00  0.00    +0.012 C 
ATOM     17  C   UNL     1       2.026   2.630 -23.732  0.00  0.00    +0.139 C 
ATOM     18  O   UNL     1       3.067   2.112 -23.149  0.00  0.00    -0.297 OA
ATOM     19  C   UNL     1       2.023   3.255 -24.872  0.00  0.00    +0.075 C 
ATOM     20  C   UNL     1       0.803   3.625 -25.123  0.00  0.00    +0.012 C 
ATOM     21  C   UNL     1       0.052   3.230 -24.138  0.00  0.00    +0.006 C 
ENDROOT
BRANCH  11  22
ATOM     22  O   UNL     1      -6.840   3.335 -21.927  0.00  0.00    -0.392 OA
ATOM     23  H   UNL     1      -7.284   3.636 -22.735  0.00  0.00    +0.210 HD
ENDBRANCH  11  22
TORSDOF 1
ENDMDL
MODEL 4
REMARK VINA RESULT:   -10.757      1.218      6.140
REMARK INTER + INTRA:         -11.072
REMARK INTER:                 -11.072
REMARK INTRA:                   0.000
REMARK UNBOUND:                 0.000
REMARK  Name = ZINC000038329342
REMARK  3 active torsions:
REMARK  status: ('A' for Active; 'I' for Inactive)
REMARK    1  A    between atoms: C_1  and  C_2
REMARK    2  A    between atoms: C_12  and  O_13
REMARK    3  A    between atoms: C_16  and  C_17
REMARK                            x       y       z     vdW  Elec       q    Type
REMARK                         _______ _______ _______ _____ _____    ______ ____
ROOT
ATOM      1  C   UNL     1       2.499   2.623 -24.367  0.00  0.00    +0.019 C 
ATOM      2  C   UNL     1       1.568   2.390 -23.491  0.00  0.00    +0.029 C 
ATOM      3  C   UNL     1       1.152   3.016 -24.552  0.00  0.00    +0.015 C 
ATOM      4  C   UNL     1      -0.100   3.350 -24.662  0.00  0.00    +0.005 C 
ATOM      5  C   UNL     1      -0.936   3.057 -23.710  0.00  0.00    -0.001 C 
ATOM      6  C   UNL     1      -0.521   2.431 -22.649  0.00  0.00    +0.004 C 
ATOM      7  C   UNL     1      -1.356   2.139 -21.698  0.00  0.00    +0.078 C 
ATOM      8  C   UNL     1      -2.608   2.472 -21.807  0.00  0.00    +0.137 C 
ATOM      9  C   UNL     1      -3.024   3.099 -22.868  0.00  0.00    +0.064 C 
ATOM     10  C   UNL     1      -4.275   3.432 -22.977  0.00  0.00    +0.043 C 
ATOM     11  C   UNL     1      -4.690   4.058 -24.038  0.00  0.00    +0.115 C 
ATOM     12  C   UNL     1      -3.854   4.351 -24.990  0.00  0.00    +0.032 C 
ATOM     13  C   UNL     1      -2.603   4.017 -24.881  0.00  0.00    +0.010 C 
ATOM     14  O   UNL     1      -3.445   2.180 -20.856  0.00  0.00    -0.297 OA
ATOM     15  C   UNL     1      -2.187   3.391 -23.819  0.00  0.00    -0.019 C 
ATOM     16  C   UNL     1      -1.351   3.683 -24.771  0.00  0.00    +0.012 C 
ATOM     17  C   UNL     1       2.741   1.953 -23.142  0.00  0.00    +0.139 C 
ATOM     18  O   UNL     1       3.835   2.060 -23.838  0.00  0.00    -0.297 OA
ATOM     19  C   UNL     1       2.631   1.391 -21.975  0.00  0.00    +0.075 C 
ATOM     20  C   UNL     1       1.389   1.480 -21.603  0.00  0.00    +0.012 C 
ATOM     21  C   UNL     1       0.732   2.097 -22.539  0.00  0.00    +0.006 C 
ENDROOT
BRANCH  11  22
ATOM     22  O   UNL     1      -5.942   4.392 -24.148  0.00  0.00    -0.392 OA
ATOM     23  H   UNL     1      -6.009   5.345 -24.316  0.00  0.00    +0.210 HD
ENDBRANCH  11  22
TORSDOF 1
ENDMDL
MODEL 5
REMARK VINA RESULT:   -10.419      1.616      3.350
REMARK INTER + INTRA:         -10.723
REMARK INTER:                 -10.723
REMARK INTRA:                   0.000
REMARK UNBOUND:                 0.000
REMARK  Name = ZINC000038329342
REMARK  3 active torsions:
REMARK  status: ('A' for Active; 'I' for Inactive)
REMARK    1  A    between atoms: C_1  and  C_2
REMARK    2  A    between atoms: C_12  and  O_13
REMARK    3  A    between atoms: C_16  and  C_17
REMARK                            x       y       z     vdW  Elec       q    Type
REMARK                         _______ _______ _______ _____ _____    ______ ____
ROOT
ATOM      1  C   UNL     1      -2.281   3.758 -25.065  0.00  0.00    +0.019 C 
ATOM      2  C   UNL     1      -1.796   3.249 -23.972  0.00  0.00    +0.029 C 
ATOM      3  C   UNL     1      -0.905   3.476 -24.891  0.00  0.00    +0.015 C 
ATOM      4  C   UNL     1       0.345   3.193 -24.668  0.00  0.00    +0.005 C 
ATOM      5  C   UNL     1       0.703   2.684 -23.527  0.00  0.00    -0.001 C 
ATOM      6  C   UNL     1      -0.189   2.457 -22.608  0.00  0.00    +0.004 C 
ATOM      7  C   UNL     1       0.169   1.948 -21.467  0.00  0.00    +0.078 C 
ATOM      8  C   UNL     1       1.417   1.666 -21.244  0.00  0.00    +0.137 C 
ATOM      9  C   UNL     1       2.310   1.893 -22.162  0.00  0.00    +0.064 C 
ATOM     10  C   UNL     1       3.558   1.610 -21.940  0.00  0.00    +0.043 C 
ATOM     11  C   UNL     1       4.450   1.837 -22.858  0.00  0.00    +0.115 C 
ATOM     12  C   UNL     1       4.092   2.346 -24.000  0.00  0.00    +0.032 C 
ATOM     13  C   UNL     1       2.844   2.628 -24.223  0.00  0.00    +0.010 C 
ATOM     14  O   UNL     1       1.776   1.157 -20.102  0.00  0.00    -0.297 OA
ATOM     15  C   UNL     1       1.951   2.402 -23.304  0.00  0.00    -0.019 C 
ATOM     16  C   UNL     1       1.594   2.911 -24.445  0.00  0.00    +0.012 C 
ATOM     17  C   UNL     1      -3.082   3.437 -23.943  0.00  0.00    +0.139 C 
ATOM     18  O   UNL     1      -3.805   3.931 -24.904  0.00  0.00    -0.297 OA
ATOM     19  C   UNL     1      -3.519   3.044 -22.783  0.00  0.00    +0.075 C 
ATOM     20  C   UNL     1      -2.504   2.613 -22.096  0.00  0.00    +0.012 C 
ATOM     21  C   UNL     1      -1.439   2.740 -22.831  0.00  0.00    +0.006 C 
ENDROOT
BRANCH  11  22
ATOM     22  O   UNL     1       5.699   1.555 -22.635  0.00  0.00    -0.392 OA
ATOM     23  H   UNL     1       5.863   0.622 -22.848  0.00  0.00    +0.210 HD
ENDBRANCH  11  22
TORSDOF 1
ENDMDL
MODEL 6
REMARK VINA RESULT:   -10.360      1.589      5.960
REMARK INTER + INTRA:         -10.663
REMARK INTER:                 -10.663
REMARK INTRA:                   0.000
REMARK UNBOUND:                 0.000
REMARK  Name = ZINC000038329342
REMARK  3 active torsions:
REMARK  status: ('A' for Active; 'I' for Inactive)
REMARK    1  A    between atoms: C_1  and  C_2
REMARK    2  A    between atoms: C_12  and  O_13
REMARK    3  A    between atoms: C_16  and  C_17
REMARK                            x       y       z     vdW  Elec       q    Type
REMARK                         _______ _______ _______ _____ _____    ______ ____
ROOT
ATOM      1  C   UNL     1       3.517   0.756 -22.073  0.00  0.00    +0.019 C 
ATOM      2  C   UNL     1       2.951   1.840 -22.516  0.00  0.00    +0.029 C 
ATOM      3  C   UNL     1       2.138   1.029 -21.906  0.00  0.00    +0.015 C 
ATOM      4  C   UNL     1       0.881   1.339 -21.785  0.00  0.00    +0.005 C 
ATOM      5  C   UNL     1       0.438   2.458 -22.275  0.00  0.00    -0.001 C 
ATOM      6  C   UNL     1       1.251   3.269 -22.885  0.00  0.00    +0.004 C 
ATOM      7  C   UNL     1       0.808   4.389 -23.374  0.00  0.00    +0.078 C 
ATOM      8  C   UNL     1      -0.449   4.698 -23.254  0.00  0.00    +0.137 C 
ATOM      9  C   UNL     1      -1.263   3.887 -22.644  0.00  0.00    +0.064 C 
ATOM     10  C   UNL     1      -2.519   4.197 -22.523  0.00  0.00    +0.043 C 
ATOM     11  C   UNL     1      -3.333   3.387 -21.914  0.00  0.00    +0.115 C 
ATOM     12  C   UNL     1      -2.889   2.267 -21.424  0.00  0.00    +0.032 C 
ATOM     13  C   UNL     1      -1.633   1.957 -21.544  0.00  0.00    +0.010 C 
ATOM     14  O   UNL     1      -0.893   5.818 -23.743  0.00  0.00    -0.297 OA
ATOM     15  C   UNL     1      -0.819   2.768 -22.155  0.00  0.00    -0.019 C 
ATOM     16  C   UNL     1      -0.376   1.648 -21.665  0.00  0.00    +0.012 C 
ATOM     17  C   UNL     1       4.225   1.769 -22.766  0.00  0.00    +0.139 C 
ATOM     18  O   UNL     1       5.017   0.793 -22.431  0.00  0.00    -0.297 OA
ATOM     19  C   UNL     1       4.569   2.845 -23.409  0.00  0.00    +0.075 C 
ATOM     20  C   UNL     1       3.508   3.580 -23.557  0.00  0.00    +0.012 C 
ATOM     21  C   UNL     1       2.508   2.959 -23.005  0.00  0.00    +0.006 C 
ENDROOT
BRANCH  11  22
ATOM     22  O   UNL     1      -4.590   3.696 -21.793  0.00  0.00    -0.392 OA
ATOM     23  H   UNL     1      -5.124   3.095 -22.336  0.00  0.00    +0.210 HD
ENDBRANCH  11  22
TORSDOF 1
ENDMDL
MODEL 7
REMARK VINA RESULT:    -9.931      1.819      2.815
REMARK INTER + INTRA:         -10.221
REMARK INTER:                 -10.221
REMARK INTRA:                   0.000
REMARK UNBOUND:                 0.000
REMARK  Name = ZINC000038329342
REMARK  3 active torsions:
REMARK  status: ('A' for Active; 'I' for Inactive)
REMARK    1  A    between atoms: C_1  and  C_2
REMARK    2  A    between atoms: C_12  and  O_13
REMARK    3  A    between atoms: C_16  and  C_17
REMARK                            x       y       z     vdW  Elec       q    Type
REMARK                         _______ _______ _______ _____ _____    ______ ____
ROOT
ATOM      1  C   UNL     1      -2.422   2.351 -22.325  0.00  0.00    +0.019 C 
ATOM      2  C   UNL     1      -1.379   3.036 -22.687  0.00  0.00    +0.029 C 
ATOM      3  C   UNL     1      -1.096   1.889 -22.145  0.00  0.00    +0.015 C 
ATOM      4  C   UNL     1       0.144   1.523 -22.008  0.00  0.00    +0.005 C 
ATOM      5  C   UNL     1       1.101   2.304 -22.414  0.00  0.00    -0.001 C 
ATOM      6  C   UNL     1       0.818   3.451 -22.957  0.00  0.00    +0.004 C 
ATOM      7  C   UNL     1       1.775   4.232 -23.363  0.00  0.00    +0.078 C 
ATOM      8  C   UNL     1       3.014   3.866 -23.226  0.00  0.00    +0.137 C 
ATOM      9  C   UNL     1       3.298   2.718 -22.684  0.00  0.00    +0.064 C 
ATOM     10  C   UNL     1       4.537   2.352 -22.547  0.00  0.00    +0.043 C 
ATOM     11  C   UNL     1       4.820   1.205 -22.005  0.00  0.00    +0.115 C 
ATOM     12  C   UNL     1       3.863   0.424 -21.599  0.00  0.00    +0.032 C 
ATOM     13  C   UNL     1       2.624   0.790 -21.735  0.00  0.00    +0.010 C 
ATOM     14  O   UNL     1       3.971   4.646 -23.632  0.00  0.00    -0.297 OA
ATOM     15  C   UNL     1       2.340   1.938 -22.278  0.00  0.00    -0.019 C 
ATOM     16  C   UNL     1       1.384   1.157 -21.872  0.00  0.00    +0.012 C 
ATOM     17  C   UNL     1      -2.511   3.626 -22.935  0.00  0.00    +0.139 C 
ATOM     18  O   UNL     1      -3.693   3.154 -22.670  0.00  0.00    -0.297 OA
ATOM     19  C   UNL     1      -2.253   4.771 -23.494  0.00  0.00    +0.075 C 
ATOM     20  C   UNL     1      -0.963   4.889 -23.592  0.00  0.00    +0.012 C 
ATOM     21  C   UNL     1      -0.422   3.817 -23.093  0.00  0.00    +0.006 C 
ENDROOT
BRANCH  11  22
ATOM     22  O   UNL     1       6.060   0.839 -21.868  0.00  0.00    -0.392 OA
ATOM     23  H   UNL     1       6.641   1.524 -22.233  0.00  0.00    +0.210 HD
ENDBRANCH  11  22
TORSDOF 1
ENDMDL
MODEL 8
REMARK VINA RESULT:    -9.869      2.043      6.574
REMARK INTER + INTRA:         -10.158
REMARK INTER:                 -10.158
REMARK INTRA:                   0.000
REMARK UNBOUND:                 0.000
REMARK  Name = ZINC000038329342
REMARK  3 active torsions:
REMARK  status: ('A' for Active; 'I' for Inactive)
REMARK    1  A    between atoms: C_1  and  C_2
REMARK    2  A    between atoms: C_12  and  O_13
REMARK    3  A    between atoms: C_16  and  C_17
REMARK                            x       y       z     vdW  Elec       q    Type
REMARK                         _______ _______ _______ _____ _____    ______ ____
ROOT
ATOM      1  C   UNL     1       4.491   3.971 -23.275  0.00  0.00    +0.019 C 
ATOM      2  C   UNL     1       3.602   3.191 -22.737  0.00  0.00    +0.029 C 
ATOM      3  C   UNL     1       3.100   4.134 -23.476  0.00  0.00    +0.015 C 
ATOM      4  C   UNL     1       1.811   4.230 -23.621  0.00  0.00    +0.005 C 
ATOM      5  C   UNL     1       1.025   3.382 -23.027  0.00  0.00    -0.001 C 
ATOM      6  C   UNL     1       1.528   2.439 -22.287  0.00  0.00    +0.004 C 
ATOM      7  C   UNL     1       0.742   1.590 -21.692  0.00  0.00    +0.078 C 
ATOM      8  C   UNL     1      -0.546   1.686 -21.837  0.00  0.00    +0.137 C 
ATOM      9  C   UNL     1      -1.049   2.630 -22.577  0.00  0.00    +0.064 C 
ATOM     10  C   UNL     1      -2.337   2.725 -22.722  0.00  0.00    +0.043 C 
ATOM     11  C   UNL     1      -2.839   3.669 -23.461  0.00  0.00    +0.115 C 
ATOM     12  C   UNL     1      -2.054   4.517 -24.056  0.00  0.00    +0.032 C 
ATOM     13  C   UNL     1      -0.766   4.422 -23.911  0.00  0.00    +0.010 C 
ATOM     14  O   UNL     1      -1.332   0.838 -21.243  0.00  0.00    -0.297 OA
ATOM     15  C   UNL     1      -0.263   3.478 -23.171  0.00  0.00    -0.019 C 
ATOM     16  C   UNL     1       0.523   4.326 -23.766  0.00  0.00    +0.012 C 
ATOM     17  C   UNL     1       4.828   2.882 -22.435  0.00  0.00    +0.139 C 
ATOM     18  O   UNL     1       5.896   3.503 -22.842  0.00  0.00    -0.297 OA
ATOM     19  C   UNL     1       4.800   1.843 -21.654  0.00  0.00    +0.075 C 
ATOM     20  C   UNL     1       3.558   1.510 -21.473  0.00  0.00    +0.012 C 
ATOM     21  C   UNL     1       2.817   2.343 -22.142  0.00  0.00    +0.006 C 
ENDROOT
BRANCH  11  22
ATOM     22  O   UNL     1      -4.128   3.765 -23.606  0.00  0.00    -0.392 OA
ATOM     23  H   UNL     1      -4.511   4.183 -22.819  0.00  0.00    +0.210 HD
ENDBRANCH  11  22
TORSDOF 1
ENDMDL
