MODEL 1
REMARK VINA RESULT:   -12.767      0.000      0.000
REMARK INTER + INTRA:         -13.140
REMARK INTER:                 -13.140
REMARK INTRA:                   0.000
REMARK UNBOUND:                 0.000
REMARK  Name = ZINC000004104648
REMARK  4 active torsions:
REMARK  status: ('A' for Active; 'I' for Inactive)
REMARK    1  A    between atoms: C_1  and  C_2
REMARK    2  A    between atoms: C_2  and  O_3
REMARK    3  A    between atoms: C_17  and  C_18
REMARK    4  A    between atoms: C_22  and  C_23
REMARK                            x       y       z     vdW  Elec       q    Type
REMARK                         _______ _______ _______ _____ _____    ______ ____
ROOT
ATOM      1  C   UNL     1      -5.192   4.085 -24.089  0.00  0.00    +0.042 C 
ATOM      2  C   UNL     1      -4.959   3.554 -22.929  0.00  0.00    +0.069 C 
ATOM      3  C   UNL     1      -5.048   3.078 -21.721  0.00  0.00    +0.035 C 
ATOM      4  C   UNL     1      -3.868   2.659 -21.361  0.00  0.00    +0.007 C 
ATOM      5  C   UNL     1      -3.048   2.876 -22.349  0.00  0.00    +0.002 C 
ATOM      6  C   UNL     1      -1.779   2.643 -22.492  0.00  0.00    +0.004 C 
ATOM      7  C   UNL     1      -1.104   2.089 -21.524  0.00  0.00    +0.083 C 
ATOM      8  C   UNL     1       0.167   1.857 -21.671  0.00  0.00    +0.160 C 
ATOM      9  C   UNL     1       0.767   2.176 -22.782  0.00  0.00    +0.004 C 
ATOM     10  C   UNL     1       2.037   1.943 -22.927  0.00  0.00    +0.053 C 
ATOM     11  C   UNL     1       2.638   2.262 -24.039  0.00  0.00    +0.157 C 
ATOM     12  C   UNL     1       1.960   2.815 -25.004  0.00  0.00    +0.080 C 
ATOM     13  C   UNL     1       0.689   3.048 -24.859  0.00  0.00    +0.019 C 
ATOM     14  O   UNL     1       3.909   2.029 -24.184  0.00  0.00    -0.293 OA
ATOM     15  C   UNL     1       0.090   2.729 -23.747  0.00  0.00    -0.000 C 
ATOM     16  C   UNL     1      -0.584   3.281 -24.713  0.00  0.00    +0.016 C 
ATOM     17  O   UNL     1       0.844   1.304 -20.704  0.00  0.00    -0.292 OA
ATOM     18  C   UNL     1      -1.182   2.962 -23.601  0.00  0.00    +0.003 C 
ATOM     19  C   UNL     1      -1.856   3.514 -24.567  0.00  0.00    +0.005 C 
ATOM     20  C   UNL     1      -3.123   3.748 -24.428  0.00  0.00    +0.010 C 
ATOM     21  C   UNL     1      -3.717   3.429 -23.319  0.00  0.00    -0.000 C 
ATOM     22  C   UNL     1      -4.433   3.965 -24.221  0.00  0.00    +0.014 C 
ENDROOT
BRANCH   2  23
ATOM     23  O   UNL     1      -6.229   3.776 -22.757  0.00  0.00    -0.388 OA
ATOM     24  H   UNL     1      -6.630   3.021 -22.297  0.00  0.00    +0.210 HD
ENDBRANCH   2  23
TORSDOF 1
ENDMDL
MODEL 2
REMARK VINA RESULT:   -12.613      1.092      2.633
REMARK INTER + INTRA:         -12.982
REMARK INTER:                 -12.982
REMARK INTRA:                   0.000
REMARK UNBOUND:                 0.000
REMARK  Name = ZINC000004104648
REMARK  4 active torsions:
REMARK  status: ('A' for Active; 'I' for Inactive)
REMARK    1  A    between atoms: C_1  and  C_2
REMARK    2  A    between atoms: C_2  and  O_3
REMARK    3  A    between atoms: C_17  and  C_18
REMARK    4  A    between atoms: C_22  and  C_23
REMARK                            x       y       z     vdW  Elec       q    Type
REMARK                         _______ _______ _______ _____ _____    ______ ____
ROOT
ATOM      1  C   UNL     1      -4.915   2.902 -21.409  0.00  0.00    +0.042 C 
ATOM      2  C   UNL     1      -4.676   3.389 -22.588  0.00  0.00    +0.069 C 
ATOM      3  C   UNL     1      -4.758   3.953 -23.758  0.00  0.00    +0.035 C 
ATOM      4  C   UNL     1      -3.579   3.915 -24.310  0.00  0.00    +0.007 C 
ATOM      5  C   UNL     1      -2.766   3.326 -23.480  0.00  0.00    +0.002 C 
ATOM      6  C   UNL     1      -1.501   3.044 -23.555  0.00  0.00    +0.004 C 
ATOM      7  C   UNL     1      -0.821   3.369 -24.619  0.00  0.00    +0.083 C 
ATOM      8  C   UNL     1       0.446   3.085 -24.690  0.00  0.00    +0.160 C 
ATOM      9  C   UNL     1       1.037   2.478 -23.701  0.00  0.00    +0.004 C 
ATOM     10  C   UNL     1       2.303   2.196 -23.774  0.00  0.00    +0.053 C 
ATOM     11  C   UNL     1       2.896   1.588 -22.784  0.00  0.00    +0.157 C 
ATOM     12  C   UNL     1       2.214   1.265 -21.722  0.00  0.00    +0.080 C 
ATOM     13  C   UNL     1       0.947   1.548 -21.650  0.00  0.00    +0.019 C 
ATOM     14  O   UNL     1       4.163   1.305 -22.857  0.00  0.00    -0.293 OA
ATOM     15  C   UNL     1       0.356   2.155 -22.639  0.00  0.00    -0.000 C 
ATOM     16  C   UNL     1      -0.323   1.832 -21.577  0.00  0.00    +0.016 C 
ATOM     17  O   UNL     1       1.126   3.408 -25.753  0.00  0.00    -0.292 OA
ATOM     18  C   UNL     1      -0.912   2.439 -22.567  0.00  0.00    +0.003 C 
ATOM     19  C   UNL     1      -1.591   2.116 -21.505  0.00  0.00    +0.005 C 
ATOM     20  C   UNL     1      -2.854   2.395 -21.428  0.00  0.00    +0.010 C 
ATOM     21  C   UNL     1      -3.440   3.000 -22.415  0.00  0.00    -0.000 C 
ATOM     22  C   UNL     1      -4.159   2.712 -21.408  0.00  0.00    +0.014 C 
ENDROOT
BRANCH   2  23
ATOM     23  O   UNL     1      -5.942   3.684 -22.541  0.00  0.00    -0.388 OA
ATOM     24  H   UNL     1      -6.429   2.953 -22.129  0.00  0.00    +0.210 HD
ENDBRANCH   2  23
TORSDOF 1
ENDMDL
MODEL 3
REMARK VINA RESULT:   -11.912      1.139      6.284
REMARK INTER + INTRA:         -12.260
REMARK INTER:                 -12.260
REMARK INTRA:                   0.000
REMARK UNBOUND:                 0.000
REMARK  Name = ZINC000004104648
REMARK  4 active torsions:
REMARK  status: ('A' for Active; 'I' for Inactive)
REMARK    1  A    between atoms: C_1  and  C_2
REMARK    2  A    between atoms: C_2  and  O_3
REMARK    3  A    between atoms: C_17  and  C_18
REMARK    4  A    between atoms: C_22  and  C_23
REMARK                            x       y       z     vdW  Elec       q    Type
REMARK                         _______ _______ _______ _____ _____    ______ ____
ROOT
ATOM      1  C   UNL     1       2.810   1.340 -21.815  0.00  0.00    +0.042 C 
ATOM      2  C   UNL     1       2.627   1.886 -22.977  0.00  0.00    +0.069 C 
ATOM      3  C   UNL     1       2.768   2.378 -24.174  0.00  0.00    +0.035 C 
ATOM      4  C   UNL     1       1.604   2.800 -24.579  0.00  0.00    +0.007 C 
ATOM      5  C   UNL     1       0.742   2.568 -23.632  0.00  0.00    +0.002 C 
ATOM      6  C   UNL     1      -0.533   2.797 -23.541  0.00  0.00    +0.004 C 
ATOM      7  C   UNL     1      -1.166   3.362 -24.531  0.00  0.00    +0.083 C 
ATOM      8  C   UNL     1      -2.443   3.590 -24.437  0.00  0.00    +0.160 C 
ATOM      9  C   UNL     1      -3.090   3.256 -23.358  0.00  0.00    +0.004 C 
ATOM     10  C   UNL     1      -4.366   3.484 -23.266  0.00  0.00    +0.053 C 
ATOM     11  C   UNL     1      -5.015   3.150 -22.185  0.00  0.00    +0.157 C 
ATOM     12  C   UNL     1      -4.378   2.586 -21.198  0.00  0.00    +0.080 C 
ATOM     13  C   UNL     1      -3.102   2.357 -21.291  0.00  0.00    +0.019 C 
ATOM     14  O   UNL     1      -6.291   3.379 -22.093  0.00  0.00    -0.293 OA
ATOM     15  C   UNL     1      -2.455   2.692 -22.371  0.00  0.00    -0.000 C 
ATOM     16  C   UNL     1      -1.822   2.128 -21.384  0.00  0.00    +0.016 C 
ATOM     17  O   UNL     1      -3.078   4.155 -25.425  0.00  0.00    -0.292 OA
ATOM     18  C   UNL     1      -1.177   2.463 -22.464  0.00  0.00    +0.003 C 
ATOM     19  C   UNL     1      -0.545   1.899 -21.477  0.00  0.00    +0.005 C 
ATOM     20  C   UNL     1       0.728   1.669 -21.563  0.00  0.00    +0.010 C 
ATOM     21  C   UNL     1       1.369   2.004 -22.640  0.00  0.00    -0.000 C 
ATOM     22  C   UNL     1       2.045   1.457 -21.714  0.00  0.00    +0.014 C 
ENDROOT
BRANCH   2  23
ATOM     23  O   UNL     1       3.904   1.669 -23.096  0.00  0.00    -0.388 OA
ATOM     24  H   UNL     1       4.306   1.617 -22.215  0.00  0.00    +0.210 HD
ENDBRANCH   2  23
TORSDOF 1
ENDMDL
MODEL 4
REMARK VINA RESULT:   -11.001      1.927      2.927
REMARK INTER + INTRA:         -11.323
REMARK INTER:                 -11.323
REMARK INTRA:                   0.000
REMARK UNBOUND:                 0.000
REMARK  Name = ZINC000004104648
REMARK  4 active torsions:
REMARK  status: ('A' for Active; 'I' for Inactive)
REMARK    1  A    between atoms: C_1  and  C_2
REMARK    2  A    between atoms: C_2  and  O_3
REMARK    3  A    between atoms: C_17  and  C_18
REMARK    4  A    between atoms: C_22  and  C_23
REMARK                            x       y       z     vdW  Elec       q    Type
REMARK                         _______ _______ _______ _____ _____    ______ ____
ROOT
ATOM      1  C   UNL     1      -2.295   4.500 -23.785  0.00  0.00    +0.042 C 
ATOM      2  C   UNL     1      -2.268   3.471 -22.996  0.00  0.00    +0.069 C 
ATOM      3  C   UNL     1      -2.571   2.467 -22.225  0.00  0.00    +0.035 C 
ATOM      4  C   UNL     1      -1.461   1.927 -21.808  0.00  0.00    +0.007 C 
ATOM      5  C   UNL     1      -0.471   2.599 -22.321  0.00  0.00    +0.002 C 
ATOM      6  C   UNL     1       0.817   2.466 -22.216  0.00  0.00    +0.004 C 
ATOM      7  C   UNL     1       1.317   1.512 -21.482  0.00  0.00    +0.083 C 
ATOM      8  C   UNL     1       2.607   1.383 -21.379  0.00  0.00    +0.160 C 
ATOM      9  C   UNL     1       3.399   2.203 -22.007  0.00  0.00    +0.004 C 
ATOM     10  C   UNL     1       4.688   2.072 -21.903  0.00  0.00    +0.053 C 
ATOM     11  C   UNL     1       5.482   2.893 -22.531  0.00  0.00    +0.157 C 
ATOM     12  C   UNL     1       4.979   3.846 -23.264  0.00  0.00    +0.080 C 
ATOM     13  C   UNL     1       3.689   3.977 -23.368  0.00  0.00    +0.019 C 
ATOM     14  O   UNL     1       6.771   2.762 -22.427  0.00  0.00    -0.293 OA
ATOM     15  C   UNL     1       2.897   3.155 -22.739  0.00  0.00    -0.000 C 
ATOM     16  C   UNL     1       2.397   4.108 -23.472  0.00  0.00    +0.016 C 
ATOM     17  O   UNL     1       3.109   0.430 -20.646  0.00  0.00    -0.292 OA
ATOM     18  C   UNL     1       1.606   3.286 -22.843  0.00  0.00    +0.003 C 
ATOM     19  C   UNL     1       1.106   4.238 -23.575  0.00  0.00    +0.005 C 
ATOM     20  C   UNL     1      -0.178   4.373 -23.682  0.00  0.00    +0.010 C 
ATOM     21  C   UNL     1      -0.965   3.554 -23.055  0.00  0.00    -0.000 C 
ATOM     22  C   UNL     1      -1.517   4.460 -23.753  0.00  0.00    +0.014 C 
ENDROOT
BRANCH   2  23
ATOM     23  O   UNL     1      -3.561   3.579 -23.082  0.00  0.00    -0.388 OA
ATOM     24  H   UNL     1      -3.981   2.886 -22.547  0.00  0.00    +0.210 HD
ENDBRANCH   2  23
TORSDOF 1
ENDMDL
MODEL 5
REMARK VINA RESULT:   -10.969      1.261      5.745
REMARK INTER + INTRA:         -11.290
REMARK INTER:                 -11.290
REMARK INTRA:                   0.000
REMARK UNBOUND:                 0.000
REMARK  Name = ZINC000004104648
REMARK  4 active torsions:
REMARK  status: ('A' for Active; 'I' for Inactive)
REMARK    1  A    between atoms: C_1  and  C_2
REMARK    2  A    between atoms: C_2  and  O_3
REMARK    3  A    between atoms: C_17  and  C_18
REMARK    4  A    between atoms: C_22  and  C_23
REMARK                            x       y       z     vdW  Elec       q    Type
REMARK                         _______ _______ _______ _____ _____    ______ ____
ROOT
ATOM      1  C   UNL     1       3.523   2.163 -24.032  0.00  0.00    +0.042 C 
ATOM      2  C   UNL     1       3.029   1.791 -22.892  0.00  0.00    +0.069 C 
ATOM      3  C   UNL     1       2.846   1.328 -21.689  0.00  0.00    +0.035 C 
ATOM      4  C   UNL     1       1.587   1.468 -21.387  0.00  0.00    +0.007 C 
ATOM      5  C   UNL     1       0.989   2.019 -22.404  0.00  0.00    +0.002 C 
ATOM      6  C   UNL     1      -0.246   2.365 -22.605  0.00  0.00    +0.004 C 
ATOM      7  C   UNL     1      -1.139   2.165 -21.675  0.00  0.00    +0.083 C 
ATOM      8  C   UNL     1      -2.375   2.513 -21.880  0.00  0.00    +0.160 C 
ATOM      9  C   UNL     1      -2.723   3.058 -23.010  0.00  0.00    +0.004 C 
ATOM     10  C   UNL     1      -3.960   3.404 -23.212  0.00  0.00    +0.053 C 
ATOM     11  C   UNL     1      -4.310   3.951 -24.343  0.00  0.00    +0.157 C 
ATOM     12  C   UNL     1      -3.415   4.148 -25.269  0.00  0.00    +0.080 C 
ATOM     13  C   UNL     1      -2.178   3.801 -25.066  0.00  0.00    +0.019 C 
ATOM     14  O   UNL     1      -5.546   4.297 -24.545  0.00  0.00    -0.293 OA
ATOM     15  C   UNL     1      -1.830   3.256 -23.936  0.00  0.00    -0.000 C 
ATOM     16  C   UNL     1      -0.939   3.454 -24.863  0.00  0.00    +0.016 C 
ATOM     17  O   UNL     1      -3.268   2.314 -20.952  0.00  0.00    -0.292 OA
ATOM     18  C   UNL     1      -0.593   2.909 -23.733  0.00  0.00    +0.003 C 
ATOM     19  C   UNL     1       0.299   3.107 -24.660  0.00  0.00    +0.005 C 
ATOM     20  C   UNL     1       1.533   2.764 -24.463  0.00  0.00    +0.010 C 
ATOM     21  C   UNL     1       1.876   2.221 -23.336  0.00  0.00    -0.000 C 
ATOM     22  C   UNL     1       2.794   2.386 -24.198  0.00  0.00    +0.014 C 
ENDROOT
BRANCH   2  23
ATOM     23  O   UNL     1       4.258   1.435 -22.663  0.00  0.00    -0.388 OA
ATOM     24  H   UNL     1       4.678   1.167 -23.496  0.00  0.00    +0.210 HD
ENDBRANCH   2  23
TORSDOF 1
ENDMDL
MODEL 6
REMARK VINA RESULT:   -10.834      1.933      6.588
REMARK INTER + INTRA:         -11.151
REMARK INTER:                 -11.151
REMARK INTRA:                   0.000
REMARK UNBOUND:                 0.000
REMARK  Name = ZINC000004104648
REMARK  4 active torsions:
REMARK  status: ('A' for Active; 'I' for Inactive)
REMARK    1  A    between atoms: C_1  and  C_2
REMARK    2  A    between atoms: C_2  and  O_3
REMARK    3  A    between atoms: C_17  and  C_18
REMARK    4  A    between atoms: C_22  and  C_23
REMARK                            x       y       z     vdW  Elec       q    Type
REMARK                         _______ _______ _______ _____ _____    ______ ____
ROOT
ATOM      1  C   UNL     1       4.195   0.748 -22.094  0.00  0.00    +0.042 C 
ATOM      2  C   UNL     1       4.186   1.870 -22.745  0.00  0.00    +0.069 C 
ATOM      3  C   UNL     1       4.499   2.931 -23.432  0.00  0.00    +0.035 C 
ATOM      4  C   UNL     1       3.418   3.636 -23.605  0.00  0.00    +0.007 C 
ATOM      5  C   UNL     1       2.434   3.011 -23.025  0.00  0.00    +0.002 C 
ATOM      6  C   UNL     1       1.171   3.291 -22.912  0.00  0.00    +0.004 C 
ATOM      7  C   UNL     1       0.695   4.383 -23.443  0.00  0.00    +0.083 C 
ATOM      8  C   UNL     1      -0.570   4.660 -23.327  0.00  0.00    +0.160 C 
ATOM      9  C   UNL     1      -1.362   3.852 -22.683  0.00  0.00    +0.004 C 
ATOM     10  C   UNL     1      -2.626   4.132 -22.568  0.00  0.00    +0.053 C 
ATOM     11  C   UNL     1      -3.419   3.323 -21.923  0.00  0.00    +0.157 C 
ATOM     12  C   UNL     1      -2.940   2.233 -21.394  0.00  0.00    +0.080 C 
ATOM     13  C   UNL     1      -1.675   1.954 -21.509  0.00  0.00    +0.019 C 
ATOM     14  O   UNL     1      -4.683   3.603 -21.809  0.00  0.00    -0.293 OA
ATOM     15  C   UNL     1      -0.883   2.763 -22.153  0.00  0.00    -0.000 C 
ATOM     16  C   UNL     1      -0.407   1.674 -21.624  0.00  0.00    +0.016 C 
ATOM     17  O   UNL     1      -1.048   5.751 -23.857  0.00  0.00    -0.292 OA
ATOM     18  C   UNL     1       0.382   2.484 -22.268  0.00  0.00    +0.003 C 
ATOM     19  C   UNL     1       0.858   1.395 -21.739  0.00  0.00    +0.005 C 
ATOM     20  C   UNL     1       2.118   1.112 -21.850  0.00  0.00    +0.010 C 
ATOM     21  C   UNL     1       2.904   1.919 -22.493  0.00  0.00    -0.000 C 
ATOM     22  C   UNL     1       3.432   0.874 -22.000  0.00  0.00    +0.014 C 
ENDROOT
BRANCH   2  23
ATOM     23  O   UNL     1       5.454   1.615 -22.875  0.00  0.00    -0.388 OA
ATOM     24  H   UNL     1       5.570   0.805 -23.396  0.00  0.00    +0.210 HD
ENDBRANCH   2  23
TORSDOF 1
ENDMDL
MODEL 7
REMARK VINA RESULT:   -10.341      2.025      6.453
REMARK INTER + INTRA:         -10.643
REMARK INTER:                 -10.643
REMARK INTRA:                   0.000
REMARK UNBOUND:                 0.000
REMARK  Name = ZINC000004104648
REMARK  4 active torsions:
REMARK  status: ('A' for Active; 'I' for Inactive)
REMARK    1  A    between atoms: C_1  and  C_2
REMARK    2  A    between atoms: C_2  and  O_3
REMARK    3  A    between atoms: C_17  and  C_18
REMARK    4  A    between atoms: C_22  and  C_23
REMARK                            x       y       z     vdW  Elec       q    Type
REMARK                         _______ _______ _______ _____ _____    ______ ____
ROOT
ATOM      1  C   UNL     1       5.506   3.775 -23.117  0.00  0.00    +0.042 C 
ATOM      2  C   UNL     1       5.123   2.753 -22.415  0.00  0.00    +0.069 C 
ATOM      3  C   UNL     1       5.065   1.686 -21.671  0.00  0.00    +0.035 C 
ATOM      4  C   UNL     1       3.811   1.380 -21.497  0.00  0.00    +0.007 C 
ATOM      5  C   UNL     1       3.092   2.259 -22.135  0.00  0.00    +0.002 C 
ATOM      6  C   UNL     1       1.808   2.396 -22.273  0.00  0.00    +0.004 C 
ATOM      7  C   UNL     1       0.996   1.548 -21.706  0.00  0.00    +0.083 C 
ATOM      8  C   UNL     1      -0.289   1.690 -21.847  0.00  0.00    +0.160 C 
ATOM      9  C   UNL     1      -0.766   2.675 -22.551  0.00  0.00    +0.004 C 
ATOM     10  C   UNL     1      -2.051   2.814 -22.690  0.00  0.00    +0.053 C 
ATOM     11  C   UNL     1      -2.529   3.801 -23.395  0.00  0.00    +0.157 C 
ATOM     12  C   UNL     1      -1.715   4.647 -23.960  0.00  0.00    +0.080 C 
ATOM     13  C   UNL     1      -0.429   4.507 -23.821  0.00  0.00    +0.019 C 
ATOM     14  O   UNL     1      -3.814   3.940 -23.534  0.00  0.00    -0.293 OA
ATOM     15  C   UNL     1       0.047   3.521 -23.116  0.00  0.00    -0.000 C 
ATOM     16  C   UNL     1       0.858   4.366 -23.681  0.00  0.00    +0.016 C 
ATOM     17  O   UNL     1      -1.102   0.843 -21.281  0.00  0.00    -0.292 OA
ATOM     18  C   UNL     1       1.333   3.380 -22.976  0.00  0.00    +0.003 C 
ATOM     19  C   UNL     1       2.145   4.226 -23.541  0.00  0.00    +0.005 C 
ATOM     20  C   UNL     1       3.426   4.092 -23.406  0.00  0.00    +0.010 C 
ATOM     21  C   UNL     1       3.898   3.109 -22.703  0.00  0.00    -0.000 C 
ATOM     22  C   UNL     1       4.743   3.898 -23.228  0.00  0.00    +0.014 C 
ENDROOT
BRANCH   2  23
ATOM     23  O   UNL     1       6.404   2.590 -22.259  0.00  0.00    -0.388 OA
ATOM     24  H   UNL     1       6.579   2.222 -21.378  0.00  0.00    +0.210 HD
ENDBRANCH   2  23
TORSDOF 1
ENDMDL
