MODEL 1
REMARK VINA RESULT:    -9.906      0.000      0.000
REMARK INTER + INTRA:         -10.486
REMARK INTER:                 -10.486
REMARK INTRA:                   0.000
REMARK UNBOUND:                 0.000
REMARK  Name = ZINC000019800965
REMARK  6 active torsions:
REMARK  status: ('A' for Active; 'I' for Inactive)
REMARK    1  A    between atoms: C_1  and  C_2
REMARK    2  A    between atoms: C_2  and  C_3
REMARK    3  A    between atoms: C_7  and  C_8
REMARK    4  A    between atoms: C_7  and  O_9
REMARK    5  A    between atoms: C_13  and  C_14
REMARK    6  A    between atoms: C_13  and  O_15
REMARK                            x       y       z     vdW  Elec       q    Type
REMARK                         _______ _______ _______ _____ _____    ______ ____
ROOT
ATOM      1  C   UNL     1      -0.001   2.203 -22.974  0.00  0.00    +0.011 C 
ATOM      2  C   UNL     1      -1.026   2.293 -22.179  0.00  0.00    -0.028 C 
ATOM      3  C   UNL     1      -2.236   2.530 -21.768  0.00  0.00    -0.001 C 
ATOM      4  C   UNL     1      -3.384   2.706 -21.184  0.00  0.00    +0.007 C 
ATOM      5  C   UNL     1      -4.496   3.141 -21.696  0.00  0.00    +0.035 C 
ATOM      6  C   UNL     1      -4.736   3.508 -22.920  0.00  0.00    +0.066 C 
ATOM      7  C   UNL     1      -3.922   3.530 -23.934  0.00  0.00    +0.027 C 
ATOM      8  C   UNL     1      -4.271   3.919 -25.124  0.00  0.00    +0.009 C 
ATOM      9  C   UNL     1      -3.232   3.820 -25.900  0.00  0.00    +0.035 C 
ATOM     10  C   UNL     1      -2.241   3.369 -25.189  0.00  0.00    +0.067 C 
ATOM     11  C   UNL     1      -1.112   2.938 -24.711  0.00  0.00    +0.041 C 
ATOM     12  C   UNL     1      -2.667   3.190 -23.974  0.00  0.00    +0.030 C 
ATOM     13  C   UNL     1      -5.486   3.953 -23.885  0.00  0.00    +0.041 C 
ATOM     14  C   UNL     1      -0.490   1.873 -21.071  0.00  0.00    +0.011 C 
ATOM     15  C   UNL     1      -1.917   2.745 -23.010  0.00  0.00    +0.005 C 
ENDROOT
BRANCH  10  16
ATOM     16  O   UNL     1      -1.578   3.458 -26.304  0.00  0.00    -0.389 OA
ATOM     17  H   UNL     1      -0.626   3.457 -26.115  0.00  0.00    +0.210 HD
ENDBRANCH  10  16
BRANCH   6  18
ATOM     18  O   UNL     1      -5.884   3.684 -22.336  0.00  0.00    -0.389 OA
ATOM     19  H   UNL     1      -6.259   4.536 -22.610  0.00  0.00    +0.210 HD
ENDBRANCH   6  18
TORSDOF 2
ENDMDL
MODEL 2
REMARK VINA RESULT:    -9.633      1.094      3.213
REMARK INTER + INTRA:         -10.196
REMARK INTER:                 -10.196
REMARK INTRA:                   0.000
REMARK UNBOUND:                 0.000
REMARK  Name = ZINC000019800965
REMARK  6 active torsions:
REMARK  status: ('A' for Active; 'I' for Inactive)
REMARK    1  A    between atoms: C_1  and  C_2
REMARK    2  A    between atoms: C_2  and  C_3
REMARK    3  A    between atoms: C_7  and  C_8
REMARK    4  A    between atoms: C_7  and  O_9
REMARK    5  A    between atoms: C_13  and  C_14
REMARK    6  A    between atoms: C_13  and  O_15
REMARK                            x       y       z     vdW  Elec       q    Type
REMARK                         _______ _______ _______ _____ _____    ______ ____
ROOT
ATOM      1  C   UNL     1      -0.736   2.076 -21.703  0.00  0.00    +0.011 C 
ATOM      2  C   UNL     1      -0.775   2.497 -22.933  0.00  0.00    -0.028 C 
ATOM      3  C   UNL     1      -1.244   2.980 -24.045  0.00  0.00    -0.001 C 
ATOM      4  C   UNL     1      -1.532   3.443 -25.225  0.00  0.00    +0.007 C 
ATOM      5  C   UNL     1      -2.678   3.863 -25.673  0.00  0.00    +0.035 C 
ATOM      6  C   UNL     1      -3.819   3.925 -25.052  0.00  0.00    +0.066 C 
ATOM      7  C   UNL     1      -4.095   3.580 -23.829  0.00  0.00    +0.027 C 
ATOM      8  C   UNL     1      -5.280   3.685 -23.306  0.00  0.00    +0.009 C 
ATOM      9  C   UNL     1      -5.217   3.259 -22.079  0.00  0.00    +0.035 C 
ATOM     10  C   UNL     1      -3.992   2.891 -21.843  0.00  0.00    +0.067 C 
ATOM     11  C   UNL     1      -2.864   2.464 -21.361  0.00  0.00    +0.041 C 
ATOM     12  C   UNL     1      -3.299   3.090 -22.925  0.00  0.00    +0.030 C 
ATOM     13  C   UNL     1      -5.087   4.192 -24.955  0.00  0.00    +0.041 C 
ATOM     14  C   UNL     1       0.468   2.317 -23.272  0.00  0.00    +0.011 C 
ATOM     15  C   UNL     1      -2.030   2.823 -23.021  0.00  0.00    +0.005 C 
ENDROOT
BRANCH  10  16
ATOM     16  O   UNL     1      -4.450   2.604 -20.661  0.00  0.00    -0.389 OA
ATOM     17  H   UNL     1      -5.321   3.015 -20.543  0.00  0.00    +0.210 HD
ENDBRANCH  10  16
BRANCH   6  18
ATOM     18  O   UNL     1      -4.107   4.388 -26.232  0.00  0.00    -0.389 OA
ATOM     19  H   UNL     1      -3.293   4.474 -26.753  0.00  0.00    +0.210 HD
ENDBRANCH   6  18
TORSDOF 2
ENDMDL
MODEL 3
REMARK VINA RESULT:    -9.475      1.382      3.487
REMARK INTER + INTRA:         -10.029
REMARK INTER:                 -10.029
REMARK INTRA:                   0.000
REMARK UNBOUND:                 0.000
REMARK  Name = ZINC000019800965
REMARK  6 active torsions:
REMARK  status: ('A' for Active; 'I' for Inactive)
REMARK    1  A    between atoms: C_1  and  C_2
REMARK    2  A    between atoms: C_2  and  C_3
REMARK    3  A    between atoms: C_7  and  C_8
REMARK    4  A    between atoms: C_7  and  O_9
REMARK    5  A    between atoms: C_13  and  C_14
REMARK    6  A    between atoms: C_13  and  O_15
REMARK                            x       y       z     vdW  Elec       q    Type
REMARK                         _______ _______ _______ _____ _____    ______ ____
ROOT
ATOM      1  C   UNL     1      -5.499   3.202 -22.029  0.00  0.00    +0.011 C 
ATOM      2  C   UNL     1      -4.279   2.886 -21.710  0.00  0.00    -0.028 C 
ATOM      3  C   UNL     1      -2.999   2.687 -21.822  0.00  0.00    -0.001 C 
ATOM      4  C   UNL     1      -1.726   2.434 -21.748  0.00  0.00    +0.007 C 
ATOM      5  C   UNL     1      -0.823   2.543 -22.676  0.00  0.00    +0.035 C 
ATOM      6  C   UNL     1      -0.968   2.932 -23.908  0.00  0.00    +0.066 C 
ATOM      7  C   UNL     1      -2.054   3.308 -24.516  0.00  0.00    +0.027 C 
ATOM      8  C   UNL     1      -2.086   3.681 -25.760  0.00  0.00    +0.009 C 
ATOM      9  C   UNL     1      -3.314   3.991 -26.057  0.00  0.00    +0.035 C 
ATOM     10  C   UNL     1      -4.041   3.810 -24.994  0.00  0.00    +0.067 C 
ATOM     11  C   UNL     1      -4.971   3.713 -24.092  0.00  0.00    +0.041 C 
ATOM     12  C   UNL     1      -3.263   3.388 -24.042  0.00  0.00    +0.030 C 
ATOM     13  C   UNL     1      -0.548   3.209 -25.107  0.00  0.00    +0.041 C 
ATOM     14  C   UNL     1      -4.451   2.551 -20.465  0.00  0.00    +0.011 C 
ATOM     15  C   UNL     1      -3.683   3.112 -22.843  0.00  0.00    +0.005 C 
ENDROOT
BRANCH  10  16
ATOM     16  O   UNL     1      -5.014   4.211 -25.758  0.00  0.00    -0.389 OA
ATOM     17  H   UNL     1      -5.668   4.688 -25.223  0.00  0.00    +0.210 HD
ENDBRANCH  10  16
BRANCH   6  18
ATOM     18  O   UNL     1       0.305   2.679 -23.833  0.00  0.00    -0.389 OA
ATOM     19  H   UNL     1       0.753   3.038 -24.616  0.00  0.00    +0.210 HD
ENDBRANCH   6  18
TORSDOF 2
ENDMDL
MODEL 4
REMARK VINA RESULT:    -9.314      1.357      3.394
REMARK INTER + INTRA:          -9.859
REMARK INTER:                  -9.859
REMARK INTRA:                   0.000
REMARK UNBOUND:                 0.000
REMARK  Name = ZINC000019800965
REMARK  6 active torsions:
REMARK  status: ('A' for Active; 'I' for Inactive)
REMARK    1  A    between atoms: C_1  and  C_2
REMARK    2  A    between atoms: C_2  and  C_3
REMARK    3  A    between atoms: C_7  and  C_8
REMARK    4  A    between atoms: C_7  and  O_9
REMARK    5  A    between atoms: C_13  and  C_14
REMARK    6  A    between atoms: C_13  and  O_15
REMARK                            x       y       z     vdW  Elec       q    Type
REMARK                         _______ _______ _______ _____ _____    ______ ____
ROOT
ATOM      1  C   UNL     1      -1.344   3.386 -25.844  0.00  0.00    +0.011 C 
ATOM      2  C   UNL     1      -2.627   3.561 -25.721  0.00  0.00    -0.028 C 
ATOM      3  C   UNL     1      -3.799   3.657 -25.169  0.00  0.00    -0.001 C 
ATOM      4  C   UNL     1      -5.037   3.789 -24.796  0.00  0.00    +0.007 C 
ATOM      5  C   UNL     1      -5.539   3.689 -23.601  0.00  0.00    +0.035 C 
ATOM      6  C   UNL     1      -4.927   3.433 -22.483  0.00  0.00    +0.066 C 
ATOM      7  C   UNL     1      -3.661   3.213 -22.285  0.00  0.00    +0.027 C 
ATOM      8  C   UNL     1      -3.151   2.965 -21.115  0.00  0.00    +0.009 C 
ATOM      9  C   UNL     1      -1.870   2.793 -21.262  0.00  0.00    +0.035 C 
ATOM     10  C   UNL     1      -1.588   2.936 -22.524  0.00  0.00    +0.067 C 
ATOM     11  C   UNL     1      -1.052   3.028 -23.703  0.00  0.00    +0.041 C 
ATOM     12  C   UNL     1      -2.694   3.195 -23.155  0.00  0.00    +0.030 C 
ATOM     13  C   UNL     1      -4.864   3.235 -21.199  0.00  0.00    +0.041 C 
ATOM     14  C   UNL     1      -2.942   3.791 -26.962  0.00  0.00    +0.011 C 
ATOM     15  C   UNL     1      -2.756   3.393 -24.439  0.00  0.00    +0.005 C 
ENDROOT
BRANCH  10  16
ATOM     16  O   UNL     1      -0.370   2.696 -22.138  0.00  0.00    -0.389 OA
ATOM     17  H   UNL     1       0.236   2.819 -22.886  0.00  0.00    +0.210 HD
ENDBRANCH  10  16
BRANCH   6  18
ATOM     18  O   UNL     1      -6.165   3.565 -22.110  0.00  0.00    -0.389 OA
ATOM     19  H   UNL     1      -6.662   4.033 -22.799  0.00  0.00    +0.210 HD
ENDBRANCH   6  18
TORSDOF 2
ENDMDL
MODEL 5
REMARK VINA RESULT:    -9.162      1.487      2.617
REMARK INTER + INTRA:          -9.697
REMARK INTER:                  -9.697
REMARK INTRA:                   0.000
REMARK UNBOUND:                 0.000
REMARK  Name = ZINC000019800965
REMARK  6 active torsions:
REMARK  status: ('A' for Active; 'I' for Inactive)
REMARK    1  A    between atoms: C_1  and  C_2
REMARK    2  A    between atoms: C_2  and  C_3
REMARK    3  A    between atoms: C_7  and  C_8
REMARK    4  A    between atoms: C_7  and  O_9
REMARK    5  A    between atoms: C_13  and  C_14
REMARK    6  A    between atoms: C_13  and  O_15
REMARK                            x       y       z     vdW  Elec       q    Type
REMARK                         _______ _______ _______ _____ _____    ______ ____
ROOT
ATOM      1  C   UNL     1      -2.145   2.990 -20.748  0.00  0.00    +0.011 C 
ATOM      2  C   UNL     1      -3.282   3.214 -21.340  0.00  0.00    -0.028 C 
ATOM      3  C   UNL     1      -4.141   3.442 -22.288  0.00  0.00    -0.001 C 
ATOM      4  C   UNL     1      -5.134   3.672 -23.094  0.00  0.00    +0.007 C 
ATOM      5  C   UNL     1      -5.112   3.818 -24.386  0.00  0.00    +0.035 C 
ATOM      6  C   UNL     1      -4.092   3.771 -25.190  0.00  0.00    +0.066 C 
ATOM      7  C   UNL     1      -2.841   3.566 -24.901  0.00  0.00    +0.027 C 
ATOM      8  C   UNL     1      -1.895   3.539 -25.792  0.00  0.00    +0.009 C 
ATOM      9  C   UNL     1      -0.771   3.313 -25.178  0.00  0.00    +0.035 C 
ATOM     10  C   UNL     1      -1.023   3.201 -23.907  0.00  0.00    +0.067 C 
ATOM     11  C   UNL     1      -1.006   3.049 -22.617  0.00  0.00    +0.041 C 
ATOM     12  C   UNL     1      -2.302   3.357 -23.736  0.00  0.00    +0.030 C 
ATOM     13  C   UNL     1      -3.513   3.826 -26.353  0.00  0.00    +0.041 C 
ATOM     14  C   UNL     1      -4.077   3.205 -20.311  0.00  0.00    +0.011 C 
ATOM     15  C   UNL     1      -2.880   3.302 -22.573  0.00  0.00    +0.005 C 
ENDROOT
BRANCH  10  16
ATOM     16  O   UNL     1       0.260   3.013 -23.809  0.00  0.00    -0.389 OA
ATOM     17  H   UNL     1       0.727   3.712 -24.294  0.00  0.00    +0.210 HD
ENDBRANCH  10  16
BRANCH   6  18
ATOM     18  O   UNL     1      -5.085   4.001 -25.997  0.00  0.00    -0.389 OA
ATOM     19  H   UNL     1      -4.774   3.955 -26.915  0.00  0.00    +0.210 HD
ENDBRANCH   6  18
TORSDOF 2
ENDMDL
MODEL 6
REMARK VINA RESULT:    -9.031      1.576      3.625
REMARK INTER + INTRA:          -9.559
REMARK INTER:                  -9.559
REMARK INTRA:                   0.000
REMARK UNBOUND:                 0.000
REMARK  Name = ZINC000019800965
REMARK  6 active torsions:
REMARK  status: ('A' for Active; 'I' for Inactive)
REMARK    1  A    between atoms: C_1  and  C_2
REMARK    2  A    between atoms: C_2  and  C_3
REMARK    3  A    between atoms: C_7  and  C_8
REMARK    4  A    between atoms: C_7  and  O_9
REMARK    5  A    between atoms: C_13  and  C_14
REMARK    6  A    between atoms: C_13  and  O_15
REMARK                            x       y       z     vdW  Elec       q    Type
REMARK                         _______ _______ _______ _____ _____    ______ ____
ROOT
ATOM      1  C   UNL     1      -5.038   3.819 -24.316  0.00  0.00    +0.011 C 
ATOM      2  C   UNL     1      -4.583   3.428 -23.162  0.00  0.00    -0.028 C 
ATOM      3  C   UNL     1      -3.747   3.031 -22.250  0.00  0.00    -0.001 C 
ATOM      4  C   UNL     1      -3.064   2.630 -21.219  0.00  0.00    +0.007 C 
ATOM      5  C   UNL     1      -1.793   2.370 -21.139  0.00  0.00    +0.035 C 
ATOM      6  C   UNL     1      -0.889   2.447 -22.071  0.00  0.00    +0.066 C 
ATOM      7  C   UNL     1      -1.035   2.803 -23.313  0.00  0.00    +0.027 C 
ATOM      8  C   UNL     1      -0.055   2.845 -24.165  0.00  0.00    +0.009 C 
ATOM      9  C   UNL     1      -0.533   3.237 -25.309  0.00  0.00    +0.035 C 
ATOM     10  C   UNL     1      -1.810   3.438 -25.163  0.00  0.00    +0.067 C 
ATOM     11  C   UNL     1      -3.076   3.706 -25.281  0.00  0.00    +0.041 C 
ATOM     12  C   UNL     1      -2.120   3.170 -23.930  0.00  0.00    +0.030 C 
ATOM     13  C   UNL     1       0.317   2.347 -22.545  0.00  0.00    +0.041 C 
ATOM     14  C   UNL     1      -5.681   3.451 -22.467  0.00  0.00    +0.011 C 
ATOM     15  C   UNL     1      -3.326   3.271 -23.457  0.00  0.00    +0.005 C 
ENDROOT
BRANCH  10  16
ATOM     16  O   UNL     1      -1.764   3.762 -26.422  0.00  0.00    -0.389 OA
ATOM     17  H   UNL     1      -1.534   2.980 -26.949  0.00  0.00    +0.210 HD
ENDBRANCH  10  16
BRANCH   6  18
ATOM     18  O   UNL     1      -0.207   2.047 -21.039  0.00  0.00    -0.389 OA
ATOM     19  H   UNL     1       0.541   2.646 -20.894  0.00  0.00    +0.210 HD
ENDBRANCH   6  18
TORSDOF 2
ENDMDL
MODEL 7
REMARK VINA RESULT:    -8.861      1.851      4.489
REMARK INTER + INTRA:          -9.379
REMARK INTER:                  -9.379
REMARK INTRA:                   0.000
REMARK UNBOUND:                 0.000
REMARK  Name = ZINC000019800965
REMARK  6 active torsions:
REMARK  status: ('A' for Active; 'I' for Inactive)
REMARK    1  A    between atoms: C_1  and  C_2
REMARK    2  A    between atoms: C_2  and  C_3
REMARK    3  A    between atoms: C_7  and  C_8
REMARK    4  A    between atoms: C_7  and  O_9
REMARK    5  A    between atoms: C_13  and  C_14
REMARK    6  A    between atoms: C_13  and  O_15
REMARK                            x       y       z     vdW  Elec       q    Type
REMARK                         _______ _______ _______ _____ _____    ______ ____
ROOT
ATOM      1  C   UNL     1      -3.643   2.540 -20.975  0.00  0.00    +0.011 C 
ATOM      2  C   UNL     1      -3.637   3.017 -22.185  0.00  0.00    -0.028 C 
ATOM      3  C   UNL     1      -3.198   3.369 -23.357  0.00  0.00    -0.001 C 
ATOM      4  C   UNL     1      -2.942   3.781 -24.563  0.00  0.00    +0.007 C 
ATOM      5  C   UNL     1      -1.814   3.750 -25.207  0.00  0.00    +0.035 C 
ATOM      6  C   UNL     1      -0.662   3.299 -24.806  0.00  0.00    +0.066 C 
ATOM      7  C   UNL     1      -0.356   2.768 -23.660  0.00  0.00    +0.027 C 
ATOM      8  C   UNL     1       0.837   2.348 -23.361  0.00  0.00    +0.009 C 
ATOM      9  C   UNL     1       0.807   1.876 -22.150  0.00  0.00    +0.035 C 
ATOM     10  C   UNL     1      -0.406   2.006 -21.699  0.00  0.00    +0.067 C 
ATOM     11  C   UNL     1      -1.516   2.020 -21.024  0.00  0.00    +0.041 C 
ATOM     12  C   UNL     1      -1.124   2.557 -22.632  0.00  0.00    +0.030 C 
ATOM     13  C   UNL     1       0.603   3.032 -24.939  0.00  0.00    +0.041 C 
ATOM     14  C   UNL     1      -4.882   3.375 -22.293  0.00  0.00    +0.011 C 
ATOM     15  C   UNL     1      -2.389   2.824 -22.497  0.00  0.00    +0.005 C 
ENDROOT
BRANCH  10  16
ATOM     16  O   UNL     1       0.080   1.458 -20.625  0.00  0.00    -0.389 OA
ATOM     17  H   UNL     1       1.027   1.662 -20.558  0.00  0.00    +0.210 HD
ENDBRANCH  10  16
BRANCH   6  18
ATOM     18  O   UNL     1      -0.407   3.712 -26.012  0.00  0.00    -0.389 OA
ATOM     19  H   UNL     1       0.017   4.583 -25.973  0.00  0.00    +0.210 HD
ENDBRANCH   6  18
TORSDOF 2
ENDMDL
MODEL 8
REMARK VINA RESULT:    -8.832      2.111      4.344
REMARK INTER + INTRA:          -9.348
REMARK INTER:                  -9.348
REMARK INTRA:                   0.000
REMARK UNBOUND:                 0.000
REMARK  Name = ZINC000019800965
REMARK  6 active torsions:
REMARK  status: ('A' for Active; 'I' for Inactive)
REMARK    1  A    between atoms: C_1  and  C_2
REMARK    2  A    between atoms: C_2  and  C_3
REMARK    3  A    between atoms: C_7  and  C_8
REMARK    4  A    between atoms: C_7  and  O_9
REMARK    5  A    between atoms: C_13  and  C_14
REMARK    6  A    between atoms: C_13  and  O_15
REMARK                            x       y       z     vdW  Elec       q    Type
REMARK                         _______ _______ _______ _____ _____    ______ ____
ROOT
ATOM      1  C   UNL     1      -2.652   4.031 -25.076  0.00  0.00    +0.011 C 
ATOM      2  C   UNL     1      -2.649   3.466 -23.904  0.00  0.00    -0.028 C 
ATOM      3  C   UNL     1      -2.210   2.859 -22.842  0.00  0.00    -0.001 C 
ATOM      4  C   UNL     1      -1.955   2.261 -21.716  0.00  0.00    +0.007 C 
ATOM      5  C   UNL     1      -0.819   1.803 -21.281  0.00  0.00    +0.035 C 
ATOM      6  C   UNL     1       0.343   1.829 -21.864  0.00  0.00    +0.066 C 
ATOM      7  C   UNL     1       0.655   2.321 -23.026  0.00  0.00    +0.027 C 
ATOM      8  C   UNL     1       1.859   2.293 -23.515  0.00  0.00    +0.009 C 
ATOM      9  C   UNL     1       1.832   2.862 -24.684  0.00  0.00    +0.035 C 
ATOM     10  C   UNL     1       0.610   3.242 -24.918  0.00  0.00    +0.067 C 
ATOM     11  C   UNL     1      -0.508   3.711 -25.386  0.00  0.00    +0.041 C 
ATOM     12  C   UNL     1      -0.117   2.907 -23.893  0.00  0.00    +0.030 C 
ATOM     13  C   UNL     1       1.618   1.591 -21.946  0.00  0.00    +0.041 C 
ATOM     14  C   UNL     1      -3.904   3.590 -23.591  0.00  0.00    +0.011 C 
ATOM     15  C   UNL     1      -1.392   3.146 -23.811  0.00  0.00    +0.005 C 
ENDROOT
BRANCH  10  16
ATOM     16  O   UNL     1       1.103   3.674 -26.040  0.00  0.00    -0.389 OA
ATOM     17  H   UNL     1       0.842   3.077 -26.759  0.00  0.00    +0.210 HD
ENDBRANCH  10  16
BRANCH   6  18
ATOM     18  O   UNL     1       0.598   1.232 -20.738  0.00  0.00    -0.389 OA
ATOM     19  H   UNL     1       0.590   1.881 -20.017  0.00  0.00    +0.210 HD
ENDBRANCH   6  18
TORSDOF 2
ENDMDL
MODEL 9
REMARK VINA RESULT:    -8.428      2.041      3.264
REMARK INTER + INTRA:          -8.921
REMARK INTER:                  -8.921
REMARK INTRA:                   0.000
REMARK UNBOUND:                 0.000
REMARK  Name = ZINC000019800965
REMARK  6 active torsions:
REMARK  status: ('A' for Active; 'I' for Inactive)
REMARK    1  A    between atoms: C_1  and  C_2
REMARK    2  A    between atoms: C_2  and  C_3
REMARK    3  A    between atoms: C_7  and  C_8
REMARK    4  A    between atoms: C_7  and  O_9
REMARK    5  A    between atoms: C_13  and  C_14
REMARK    6  A    between atoms: C_13  and  O_15
REMARK                            x       y       z     vdW  Elec       q    Type
REMARK                         _______ _______ _______ _____ _____    ______ ____
ROOT
ATOM      1  C   UNL     1       3.227   1.755 -23.403  0.00  0.00    +0.011 C 
ATOM      2  C   UNL     1       2.310   1.546 -22.505  0.00  0.00    -0.028 C 
ATOM      3  C   UNL     1       1.150   1.556 -21.919  0.00  0.00    -0.001 C 
ATOM      4  C   UNL     1       0.078   1.471 -21.187  0.00  0.00    +0.007 C 
ATOM      5  C   UNL     1      -1.116   1.915 -21.445  0.00  0.00    +0.035 C 
ATOM      6  C   UNL     1      -1.535   2.553 -22.497  0.00  0.00    +0.066 C 
ATOM      7  C   UNL     1      -0.861   2.906 -23.552  0.00  0.00    +0.027 C 
ATOM      8  C   UNL     1      -1.384   3.547 -24.554  0.00  0.00    +0.009 C 
ATOM      9  C   UNL     1      -0.450   3.744 -25.437  0.00  0.00    +0.035 C 
ATOM     10  C   UNL     1       0.651   3.225 -24.980  0.00  0.00    +0.067 C 
ATOM     11  C   UNL     1       1.857   2.795 -24.757  0.00  0.00    +0.041 C 
ATOM     12  C   UNL     1       0.397   2.707 -23.815  0.00  0.00    +0.030 C 
ATOM     13  C   UNL     1      -2.429   3.154 -23.225  0.00  0.00    +0.041 C 
ATOM     14  C   UNL     1       3.009   0.912 -21.611  0.00  0.00    +0.011 C 
ATOM     15  C   UNL     1       1.292   2.106 -23.088  0.00  0.00    +0.005 C 
ENDROOT
BRANCH  10  16
ATOM     16  O   UNL     1       1.157   3.653 -26.098  0.00  0.00    -0.389 OA
ATOM     17  H   UNL     1       1.863   4.292 -25.910  0.00  0.00    +0.210 HD
ENDBRANCH  10  16
BRANCH   6  18
ATOM     18  O   UNL     1      -2.606   2.468 -21.766  0.00  0.00    -0.389 OA
ATOM     19  H   UNL     1      -2.553   3.107 -21.038  0.00  0.00    +0.210 HD
ENDBRANCH   6  18
TORSDOF 2
ENDMDL
