MODEL 1
REMARK VINA RESULT:    -5.915      0.000      0.000
REMARK INTER + INTRA:          -6.989
REMARK INTER:                  -7.493
REMARK INTRA:                   0.503
REMARK UNBOUND:                -0.210
REMARK  Name = ZINC000000000181
REMARK  6 active torsions:
REMARK  status: ('A' for Active; 'I' for Inactive)
REMARK    1  A    between atoms: C_1  and  O_2
REMARK    2  A    between atoms: O_2  and  C_3
REMARK    3  A    between atoms: C_11  and  O_12
REMARK    4  A    between atoms: O_12  and  C_13
REMARK    5  A    between atoms: C_14  and  O_15
REMARK    6  A    between atoms: N_20  and  C_21
REMARK                            x       y       z     vdW  Elec       q    Type
REMARK                         _______ _______ _______ _____ _____    ______ ____
ROOT
ATOM      1  C   UNL     1       1.189   1.478 -21.404  0.00  0.00    +0.159 C 
ATOM      2  C   UNL     1       0.302   2.282 -22.037  0.00  0.00    +0.032 C 
ATOM      3  C   UNL     1       0.352   2.609 -23.526  0.00  0.00    +0.075 C 
ATOM      4  C   UNL     1      -0.195   4.006 -23.857  0.00  0.00    +0.076 C 
ATOM      5  C   UNL     1       0.666   5.092 -23.186  0.00  0.00    +0.090 C 
ATOM      6  C   UNL     1       2.166   4.823 -23.184  0.00  0.00    -0.035 A 
ATOM      7  C   UNL     1       2.999   5.859 -22.723  0.00  0.00    +0.008 A 
ATOM      8  C   UNL     1       4.394   5.724 -22.750  0.00  0.00    +0.049 A 
ATOM      9  C   UNL     1       4.982   4.555 -23.281  0.00  0.00    +0.162 A 
ATOM     10  C   UNL     1       4.146   3.514 -23.749  0.00  0.00    +0.163 A 
ATOM     11  C   UNL     1       2.725   3.599 -23.654  0.00  0.00    +0.009 A 
ATOM     12  N   UNL     1      -0.277   4.198 -25.318  0.00  0.00    +0.236 N 
ATOM     13  H   UNL     1      -0.444   5.199 -25.425  0.00  0.00    +0.203 HD
ATOM     14  C   UNL     1      -1.408   3.495 -25.921  0.00  0.00    +0.190 C 
ATOM     15  C   UNL     1       0.973   3.924 -26.041  0.00  0.00    +0.132 C 
ATOM     16  C   UNL     1       1.598   2.564 -25.647  0.00  0.00    +0.064 C 
ATOM     17  C   UNL     1       1.780   2.452 -24.118  0.00  0.00    +0.023 C 
ATOM     18  C   UNL     1       2.244   1.023 -23.710  0.00  0.00    +0.095 C 
ATOM     19  C   UNL     1       2.257   0.825 -22.191  0.00  0.00    +0.198 C 
ATOM     20  O   UNL     1       3.114   0.095 -21.697  0.00  0.00    -0.289 OA
ENDROOT
BRANCH   1  22
ATOM     21  C   UNL     1       2.418   1.234 -19.358  0.00  0.00    +0.277 C 
ATOM     22  O   UNL     1       1.181   1.197 -20.055  0.00  0.00    -0.492 OA
ENDBRANCH   1  22
BRANCH  10  23
ATOM     23  O   UNL     1       4.767   2.445 -24.328  0.00  0.00    -0.503 OA
ATOM     24  H   UNL     1       4.603   1.579 -24.008  0.00  0.00    +0.292 HD
ENDBRANCH  10  23
BRANCH   9  25
ATOM     25  O   UNL     1       6.345   4.369 -23.384  0.00  0.00    -0.491 OA
ATOM     26  C   UNL     1       7.082   4.077 -22.206  0.00  0.00    +0.277 C 
ENDBRANCH   9  25
TORSDOF 3
ENDMDL
MODEL 2
REMARK VINA RESULT:    -5.355      3.419      7.318
REMARK INTER + INTRA:          -6.348
REMARK INTER:                  -6.156
REMARK INTRA:                  -0.192
REMARK UNBOUND:                -0.210
REMARK  Name = ZINC000000000181
REMARK  6 active torsions:
REMARK  status: ('A' for Active; 'I' for Inactive)
REMARK    1  A    between atoms: C_1  and  O_2
REMARK    2  A    between atoms: O_2  and  C_3
REMARK    3  A    between atoms: C_11  and  O_12
REMARK    4  A    between atoms: O_12  and  C_13
REMARK    5  A    between atoms: C_14  and  O_15
REMARK    6  A    between atoms: N_20  and  C_21
REMARK                            x       y       z     vdW  Elec       q    Type
REMARK                         _______ _______ _______ _____ _____    ______ ____
ROOT
ATOM      1  C   UNL     1       8.355   5.833 -25.077  0.00  0.00    +0.159 C 
ATOM      2  C   UNL     1       8.105   6.725 -24.089  0.00  0.00    +0.032 C 
ATOM      3  C   UNL     1       8.098   6.380 -22.604  0.00  0.00    +0.075 C 
ATOM      4  C   UNL     1       7.121   7.240 -21.788  0.00  0.00    +0.076 C 
ATOM      5  C   UNL     1       5.674   6.999 -22.256  0.00  0.00    +0.090 C 
ATOM      6  C   UNL     1       5.336   5.554 -22.604  0.00  0.00    -0.035 A 
ATOM      7  C   UNL     1       3.987   5.265 -22.884  0.00  0.00    +0.008 A 
ATOM      8  C   UNL     1       3.576   3.951 -23.147  0.00  0.00    +0.049 A 
ATOM      9  C   UNL     1       4.509   2.893 -23.094  0.00  0.00    +0.162 A 
ATOM     10  C   UNL     1       5.863   3.182 -22.808  0.00  0.00    +0.163 A 
ATOM     11  C   UNL     1       6.316   4.521 -22.618  0.00  0.00    +0.009 A 
ATOM     12  N   UNL     1       7.280   6.979 -20.344  0.00  0.00    +0.236 N 
ATOM     13  H   UNL     1       6.467   7.428 -19.923  0.00  0.00    +0.203 HD
ATOM     14  C   UNL     1       8.473   7.608 -19.781  0.00  0.00    +0.190 C 
ATOM     15  C   UNL     1       7.192   5.560 -19.968  0.00  0.00    +0.132 C 
ATOM     16  C   UNL     1       8.092   4.659 -20.846  0.00  0.00    +0.064 C 
ATOM     17  C   UNL     1       7.809   4.875 -22.348  0.00  0.00    +0.023 C 
ATOM     18  C   UNL     1       8.831   4.100 -23.231  0.00  0.00    +0.095 C 
ATOM     19  C   UNL     1       8.692   4.438 -24.718  0.00  0.00    +0.198 C 
ATOM     20  O   UNL     1       8.915   3.559 -25.548  0.00  0.00    -0.289 OA
ENDROOT
BRANCH   1  22
ATOM     21  C   UNL     1       8.761   7.406 -26.842  0.00  0.00    +0.277 C 
ATOM     22  O   UNL     1       8.333   6.117 -26.426  0.00  0.00    -0.492 OA
ENDBRANCH   1  22
BRANCH  10  23
ATOM     23  O   UNL     1       6.704   2.112 -22.686  0.00  0.00    -0.503 OA
ATOM     24  H   UNL     1       6.887   1.574 -23.432  0.00  0.00    +0.292 HD
ENDBRANCH  10  23
BRANCH   9  25
ATOM     25  O   UNL     1       4.170   1.570 -23.294  0.00  0.00    -0.491 OA
ATOM     26  C   UNL     1       3.336   1.242 -24.395  0.00  0.00    +0.277 C 
ENDBRANCH   9  25
TORSDOF 3
ENDMDL
MODEL 3
REMARK VINA RESULT:    -3.827      2.784      5.692
REMARK INTER + INTRA:          -4.596
REMARK INTER:                  -4.391
REMARK INTRA:                  -0.205
REMARK UNBOUND:                -0.210
REMARK  Name = ZINC000000000181
REMARK  6 active torsions:
REMARK  status: ('A' for Active; 'I' for Inactive)
REMARK    1  A    between atoms: C_1  and  O_2
REMARK    2  A    between atoms: O_2  and  C_3
REMARK    3  A    between atoms: C_11  and  O_12
REMARK    4  A    between atoms: O_12  and  C_13
REMARK    5  A    between atoms: C_14  and  O_15
REMARK    6  A    between atoms: N_20  and  C_21
REMARK                            x       y       z     vdW  Elec       q    Type
REMARK                         _______ _______ _______ _____ _____    ______ ____
ROOT
ATOM      1  C   UNL     1       2.907   5.135 -22.892  0.00  0.00    +0.159 C 
ATOM      2  C   UNL     1       3.499   4.180 -22.135  0.00  0.00    +0.032 C 
ATOM      3  C   UNL     1       3.562   2.703 -22.512  0.00  0.00    +0.075 C 
ATOM      4  C   UNL     1       3.567   1.768 -21.293  0.00  0.00    +0.076 C 
ATOM      5  C   UNL     1       2.258   1.917 -20.496  0.00  0.00    +0.090 C 
ATOM      6  C   UNL     1       1.000   2.091 -21.339  0.00  0.00    -0.035 A 
ATOM      7  C   UNL     1      -0.231   2.073 -20.658  0.00  0.00    +0.008 A 
ATOM      8  C   UNL     1      -1.441   2.157 -21.362  0.00  0.00    +0.049 A 
ATOM      9  C   UNL     1      -1.437   2.221 -22.772  0.00  0.00    +0.162 A 
ATOM     10  C   UNL     1      -0.200   2.234 -23.458  0.00  0.00    +0.163 A 
ATOM     11  C   UNL     1       1.042   2.232 -22.757  0.00  0.00    +0.009 A 
ATOM     12  N   UNL     1       3.797   0.372 -21.711  0.00  0.00    +0.236 N 
ATOM     13  H   UNL     1       3.577  -0.173 -20.878  0.00  0.00    +0.203 HD
ATOM     14  C   UNL     1       5.191   0.105 -22.057  0.00  0.00    +0.190 C 
ATOM     15  C   UNL     1       2.883  -0.111 -22.756  0.00  0.00    +0.132 C 
ATOM     16  C   UNL     1       2.781   0.867 -23.951  0.00  0.00    +0.064 C 
ATOM     17  C   UNL     1       2.419   2.293 -23.481  0.00  0.00    +0.023 C 
ATOM     18  C   UNL     1       2.489   3.308 -24.660  0.00  0.00    +0.095 C 
ATOM     19  C   UNL     1       2.315   4.756 -24.193  0.00  0.00    +0.198 C 
ATOM     20  O   UNL     1       1.743   5.552 -24.935  0.00  0.00    -0.289 OA
ENDROOT
BRANCH   1  22
ATOM     21  C   UNL     1       4.001   7.147 -22.178  0.00  0.00    +0.277 C 
ATOM     22  O   UNL     1       2.811   6.467 -22.553  0.00  0.00    -0.492 OA
ENDBRANCH   1  22
BRANCH  10  23
ATOM     23  O   UNL     1      -0.257   2.211 -24.822  0.00  0.00    -0.503 OA
ATOM     24  H   UNL     1      -0.239   1.393 -25.278  0.00  0.00    +0.292 HD
ENDBRANCH  10  23
BRANCH   9  25
ATOM     25  O   UNL     1      -2.586   2.258 -23.535  0.00  0.00    -0.491 OA
ATOM     26  C   UNL     1      -3.442   3.384 -23.419  0.00  0.00    +0.277 C 
ENDBRANCH   9  25
TORSDOF 3
ENDMDL
MODEL 4
REMARK VINA RESULT:    -3.403      6.836      9.740
REMARK INTER + INTRA:          -4.111
REMARK INTER:                  -3.924
REMARK INTRA:                  -0.187
REMARK UNBOUND:                -0.210
REMARK  Name = ZINC000000000181
REMARK  6 active torsions:
REMARK  status: ('A' for Active; 'I' for Inactive)
REMARK    1  A    between atoms: C_1  and  O_2
REMARK    2  A    between atoms: O_2  and  C_3
REMARK    3  A    between atoms: C_11  and  O_12
REMARK    4  A    between atoms: O_12  and  C_13
REMARK    5  A    between atoms: C_14  and  O_15
REMARK    6  A    between atoms: N_20  and  C_21
REMARK                            x       y       z     vdW  Elec       q    Type
REMARK                         _______ _______ _______ _____ _____    ______ ____
ROOT
ATOM      1  C   UNL     1       5.166   8.775 -21.729  0.00  0.00    +0.159 C 
ATOM      2  C   UNL     1       6.126   9.237 -22.565  0.00  0.00    +0.032 C 
ATOM      3  C   UNL     1       6.626  10.678 -22.583  0.00  0.00    +0.075 C 
ATOM      4  C   UNL     1       7.085  11.141 -23.974  0.00  0.00    +0.076 C 
ATOM      5  C   UNL     1       5.906  11.119 -24.964  0.00  0.00    +0.090 C 
ATOM      6  C   UNL     1       4.569  11.578 -24.393  0.00  0.00    -0.035 A 
ATOM      7  C   UNL     1       3.504  11.722 -25.301  0.00  0.00    +0.008 A 
ATOM      8  C   UNL     1       2.259  12.204 -24.874  0.00  0.00    +0.049 A 
ATOM      9  C   UNL     1       2.072  12.590 -23.529  0.00  0.00    +0.162 A 
ATOM     10  C   UNL     1       3.143  12.450 -22.616  0.00  0.00    +0.163 A 
ATOM     11  C   UNL     1       4.392  11.885 -23.013  0.00  0.00    +0.009 A 
ATOM     12  N   UNL     1       7.710  12.476 -23.897  0.00  0.00    +0.236 N 
ATOM     13  H   UNL     1       7.783  12.769 -24.872  0.00  0.00    +0.203 HD
ATOM     14  C   UNL     1       9.062  12.439 -23.344  0.00  0.00    +0.190 C 
ATOM     15  C   UNL     1       6.887  13.498 -23.235  0.00  0.00    +0.132 C 
ATOM     16  C   UNL     1       6.326  13.015 -21.876  0.00  0.00    +0.064 C 
ATOM     17  C   UNL     1       5.574  11.675 -22.021  0.00  0.00    +0.023 C 
ATOM     18  C   UNL     1       5.164  11.106 -20.632  0.00  0.00    +0.095 C 
ATOM     19  C   UNL     1       4.580   9.693 -20.729  0.00  0.00    +0.198 C 
ATOM     20  O   UNL     1       3.692   9.364 -19.943  0.00  0.00    -0.289 OA
ENDROOT
BRANCH   1  22
ATOM     21  C   UNL     1       5.549   6.440 -22.127  0.00  0.00    +0.277 C 
ATOM     22  O   UNL     1       4.678   7.486 -21.719  0.00  0.00    -0.492 OA
ENDBRANCH   1  22
BRANCH  10  23
ATOM     23  O   UNL     1       2.933  12.917 -21.350  0.00  0.00    -0.503 OA
ATOM     24  H   UNL     1       2.935  13.839 -21.185  0.00  0.00    +0.292 HD
ENDBRANCH  10  23
BRANCH   9  25
ATOM     25  O   UNL     1       0.891  13.117 -23.046  0.00  0.00    -0.491 OA
ATOM     26  C   UNL     1      -0.233  13.171 -23.911  0.00  0.00    +0.277 C 
ENDBRANCH   9  25
TORSDOF 3
ENDMDL
MODEL 5
REMARK VINA RESULT:    -2.984      6.573      8.764
REMARK INTER + INTRA:          -3.630
REMARK INTER:                  -3.727
REMARK INTRA:                   0.097
REMARK UNBOUND:                -0.210
REMARK  Name = ZINC000000000181
REMARK  6 active torsions:
REMARK  status: ('A' for Active; 'I' for Inactive)
REMARK    1  A    between atoms: C_1  and  O_2
REMARK    2  A    between atoms: O_2  and  C_3
REMARK    3  A    between atoms: C_11  and  O_12
REMARK    4  A    between atoms: O_12  and  C_13
REMARK    5  A    between atoms: C_14  and  O_15
REMARK    6  A    between atoms: N_20  and  C_21
REMARK                            x       y       z     vdW  Elec       q    Type
REMARK                         _______ _______ _______ _____ _____    ______ ____
ROOT
ATOM      1  C   UNL     1       4.598   8.719 -20.624  0.00  0.00    +0.159 C 
ATOM      2  C   UNL     1       4.192   9.900 -20.100  0.00  0.00    +0.032 C 
ATOM      3  C   UNL     1       3.569  11.030 -20.914  0.00  0.00    +0.075 C 
ATOM      4  C   UNL     1       3.879  12.424 -20.349  0.00  0.00    +0.076 C 
ATOM      5  C   UNL     1       5.394  12.696 -20.390  0.00  0.00    +0.090 C 
ATOM      6  C   UNL     1       6.112  12.182 -21.633  0.00  0.00    -0.035 A 
ATOM      7  C   UNL     1       7.463  12.546 -21.785  0.00  0.00    +0.008 A 
ATOM      8  C   UNL     1       8.181  12.175 -22.930  0.00  0.00    +0.049 A 
ATOM      9  C   UNL     1       7.542  11.462 -23.967  0.00  0.00    +0.162 A 
ATOM     10  C   UNL     1       6.182  11.100 -23.818  0.00  0.00    +0.163 A 
ATOM     11  C   UNL     1       5.458  11.397 -22.626  0.00  0.00    +0.009 A 
ATOM     12  N   UNL     1       3.117  13.460 -21.073  0.00  0.00    +0.236 N 
ATOM     13  H   UNL     1       3.544  14.335 -20.771  0.00  0.00    +0.203 HD
ATOM     14  C   UNL     1       1.707  13.500 -20.691  0.00  0.00    +0.190 C 
ATOM     15  C   UNL     1       3.276  13.423 -22.535  0.00  0.00    +0.132 C 
ATOM     16  C   UNL     1       3.070  12.005 -23.116  0.00  0.00    +0.064 C 
ATOM     17  C   UNL     1       3.975  10.971 -22.413  0.00  0.00    +0.023 C 
ATOM     18  C   UNL     1       3.642   9.523 -22.877  0.00  0.00    +0.095 C 
ATOM     19  C   UNL     1       4.393   8.463 -22.065  0.00  0.00    +0.198 C 
ATOM     20  O   UNL     1       4.746   7.428 -22.628  0.00  0.00    -0.289 OA
ENDROOT
BRANCH   1  22
ATOM     21  C   UNL     1       6.544   7.380 -20.207  0.00  0.00    +0.277 C 
ATOM     22  O   UNL     1       5.192   7.699 -19.911  0.00  0.00    -0.492 OA
ENDBRANCH   1  22
BRANCH  10  23
ATOM     23  O   UNL     1       5.593  10.487 -24.886  0.00  0.00    -0.503 OA
ATOM     24  H   UNL     1       5.071   9.719 -24.756  0.00  0.00    +0.292 HD
ENDBRANCH  10  23
BRANCH   9  25
ATOM     25  O   UNL     1       8.169  11.104 -25.143  0.00  0.00    -0.491 OA
ATOM     26  C   UNL     1       8.632  12.131 -26.006  0.00  0.00    +0.277 C 
ENDBRANCH   9  25
TORSDOF 3
ENDMDL
MODEL 6
REMARK VINA RESULT:    -2.928      6.983     10.020
REMARK INTER + INTRA:          -3.566
REMARK INTER:                  -3.424
REMARK INTRA:                  -0.143
REMARK UNBOUND:                -0.210
REMARK  Name = ZINC000000000181
REMARK  6 active torsions:
REMARK  status: ('A' for Active; 'I' for Inactive)
REMARK    1  A    between atoms: C_1  and  O_2
REMARK    2  A    between atoms: O_2  and  C_3
REMARK    3  A    between atoms: C_11  and  O_12
REMARK    4  A    between atoms: O_12  and  C_13
REMARK    5  A    between atoms: C_14  and  O_15
REMARK    6  A    between atoms: N_20  and  C_21
REMARK                            x       y       z     vdW  Elec       q    Type
REMARK                         _______ _______ _______ _____ _____    ______ ____
ROOT
ATOM      1  C   UNL     1       8.138   8.668 -22.795  0.00  0.00    +0.159 C 
ATOM      2  C   UNL     1       8.060   9.205 -24.036  0.00  0.00    +0.032 C 
ATOM      3  C   UNL     1       8.175  10.697 -24.334  0.00  0.00    +0.075 C 
ATOM      4  C   UNL     1       7.355  11.134 -25.557  0.00  0.00    +0.076 C 
ATOM      5  C   UNL     1       5.854  10.895 -25.312  0.00  0.00    +0.090 C 
ATOM      6  C   UNL     1       5.370  11.202 -23.900  0.00  0.00    -0.035 A 
ATOM      7  C   UNL     1       3.981  11.148 -23.677  0.00  0.00    +0.008 A 
ATOM      8  C   UNL     1       3.443  11.483 -22.427  0.00  0.00    +0.049 A 
ATOM      9  C   UNL     1       4.289  11.919 -21.384  0.00  0.00    +0.162 A 
ATOM     10  C   UNL     1       5.685  11.978 -21.609  0.00  0.00    +0.163 A 
ATOM     11  C   UNL     1       6.259  11.564 -22.847  0.00  0.00    +0.009 A 
ATOM     12  N   UNL     1       7.637  12.543 -25.895  0.00  0.00    +0.236 N 
ATOM     13  H   UNL     1       6.908  12.785 -26.566  0.00  0.00    +0.203 HD
ATOM     14  C   UNL     1       8.926  12.722 -26.559  0.00  0.00    +0.190 C 
ATOM     15  C   UNL     1       7.475  13.482 -24.775  0.00  0.00    +0.132 C 
ATOM     16  C   UNL     1       8.208  13.010 -23.497  0.00  0.00    +0.064 C 
ATOM     17  C   UNL     1       7.794  11.574 -23.109  0.00  0.00    +0.023 C 
ATOM     18  C   UNL     1       8.658  11.039 -21.930  0.00  0.00    +0.095 C 
ATOM     19  C   UNL     1       8.398   9.557 -21.642  0.00  0.00    +0.198 C 
ATOM     20  O   UNL     1       8.467   9.159 -20.481  0.00  0.00    -0.289 OA
ENDROOT
BRANCH   1  22
ATOM     21  C   UNL     1       6.719   6.852 -22.132  0.00  0.00    +0.277 C 
ATOM     22  O   UNL     1       8.005   7.328 -22.502  0.00  0.00    -0.492 OA
ENDBRANCH   1  22
BRANCH  10  23
ATOM     23  O   UNL     1       6.445  12.487 -20.596  0.00  0.00    -0.503 OA
ATOM     24  H   UNL     1       7.208  12.994 -20.792  0.00  0.00    +0.292 HD
ENDBRANCH  10  23
BRANCH   9  25
ATOM     25  O   UNL     1       3.829  12.310 -20.144  0.00  0.00    -0.491 OA
ATOM     26  C   UNL     1       2.913  13.392 -20.069  0.00  0.00    +0.277 C 
ENDBRANCH   9  25
TORSDOF 3
ENDMDL
