MODEL 1
REMARK VINA RESULT:   -10.348      0.000      0.000
REMARK INTER + INTRA:         -10.650
REMARK INTER:                 -10.650
REMARK INTRA:                   0.000
REMARK UNBOUND:                 0.000
REMARK  Name = ZINC000071325821
REMARK  4 active torsions:
REMARK  status: ('A' for Active; 'I' for Inactive)
REMARK    1  A    between atoms: C_1  and  C_2
REMARK    2  A    between atoms: C_6  and  C_7
REMARK    3  A    between atoms: C_6  and  O_8
REMARK    4  A    between atoms: C_14  and  C_15
REMARK                            x       y       z     vdW  Elec       q    Type
REMARK                         _______ _______ _______ _____ _____    ______ ____
ROOT
ATOM      1  C   UNL     1      -5.768   3.390 -22.137  0.00  0.00    +0.039 C 
ATOM      2  C   UNL     1      -4.525   3.129 -22.414  0.00  0.00    -0.073 C 
ATOM      3  C   UNL     1      -4.177   3.288 -23.656  0.00  0.00    -0.061 C 
ATOM      4  C   UNL     1      -4.998   3.681 -24.584  0.00  0.00    +0.034 C 
ATOM      5  C   UNL     1      -4.340   3.736 -25.705  0.00  0.00    +0.039 C 
ATOM      6  C   UNL     1      -3.113   3.378 -25.469  0.00  0.00    +0.073 C 
ATOM      7  C   UNL     1      -2.951   3.590 -26.741  0.00  0.00    +0.042 C 
ATOM      8  C   UNL     1      -3.012   3.101 -24.202  0.00  0.00    +0.087 C 
ATOM      9  C   UNL     1      -1.907   2.709 -23.641  0.00  0.00    +0.190 C 
ATOM     10  O   UNL     1      -0.790   2.554 -24.288  0.00  0.00    -0.460 OA
ATOM     11  C   UNL     1       0.113   2.157 -23.442  0.00  0.00    +0.311 C 
ATOM     12  C   UNL     1      -0.446   2.066 -22.272  0.00  0.00    +0.101 C 
ATOM     13  C   UNL     1       0.141   1.698 -21.172  0.00  0.00    +0.019 C 
ATOM     14  O   UNL     1       1.357   1.896 -23.717  0.00  0.00    -0.251 OA
ATOM     15  C   UNL     1      -1.694   2.407 -22.394  0.00  0.00    +0.044 C 
ATOM     16  C   UNL     1      -2.533   2.423 -21.402  0.00  0.00    +0.012 C 
ATOM     17  C   UNL     1      -3.792   2.744 -21.410  0.00  0.00    +0.031 C 
ENDROOT
BRANCH   6  18
ATOM     18  O   UNL     1      -1.852   3.064 -25.499  0.00  0.00    -0.388 OA
ATOM     19  H   UNL     1      -1.431   3.490 -26.260  0.00  0.00    +0.210 HD
ENDBRANCH   6  18
TORSDOF 1
ENDMDL
MODEL 2
REMARK VINA RESULT:    -9.885      1.671      3.185
REMARK INTER + INTRA:         -10.174
REMARK INTER:                 -10.174
REMARK INTRA:                   0.000
REMARK UNBOUND:                 0.000
REMARK  Name = ZINC000071325821
REMARK  4 active torsions:
REMARK  status: ('A' for Active; 'I' for Inactive)
REMARK    1  A    between atoms: C_1  and  C_2
REMARK    2  A    between atoms: C_6  and  C_7
REMARK    3  A    between atoms: C_6  and  O_8
REMARK    4  A    between atoms: C_14  and  C_15
REMARK                            x       y       z     vdW  Elec       q    Type
REMARK                         _______ _______ _______ _____ _____    ______ ____
ROOT
ATOM      1  C   UNL     1      -3.805   4.429 -25.865  0.00  0.00    +0.039 C 
ATOM      2  C   UNL     1      -3.072   3.879 -24.943  0.00  0.00    -0.073 C 
ATOM      3  C   UNL     1      -3.689   3.567 -23.843  0.00  0.00    -0.061 C 
ATOM      4  C   UNL     1      -4.956   3.780 -23.647  0.00  0.00    +0.034 C 
ATOM      5  C   UNL     1      -5.256   3.357 -22.455  0.00  0.00    +0.039 C 
ATOM      6  C   UNL     1      -4.173   2.882 -21.913  0.00  0.00    +0.073 C 
ATOM      7  C   UNL     1      -4.949   2.643 -20.898  0.00  0.00    +0.042 C 
ATOM      8  C   UNL     1      -3.204   3.012 -22.771  0.00  0.00    +0.087 C 
ATOM      9  C   UNL     1      -1.983   2.633 -22.535  0.00  0.00    +0.190 C 
ATOM     10  O   UNL     1      -1.607   2.084 -21.418  0.00  0.00    -0.460 OA
ATOM     11  C   UNL     1      -0.336   1.827 -21.507  0.00  0.00    +0.311 C 
ATOM     12  C   UNL     1       0.073   2.216 -22.678  0.00  0.00    +0.101 C 
ATOM     13  C   UNL     1       1.287   2.123 -23.133  0.00  0.00    +0.019 C 
ATOM     14  O   UNL     1       0.399   1.276 -20.585  0.00  0.00    -0.251 OA
ATOM     15  C   UNL     1      -0.946   2.714 -23.314  0.00  0.00    +0.044 C 
ATOM     16  C   UNL     1      -0.872   3.195 -24.519  0.00  0.00    +0.012 C 
ATOM     17  C   UNL     1      -1.818   3.713 -25.244  0.00  0.00    +0.031 C 
ENDROOT
BRANCH   6  18
ATOM     18  O   UNL     1      -3.253   2.358 -21.159  0.00  0.00    -0.388 OA
ATOM     19  H   UNL     1      -3.621   2.171 -20.282  0.00  0.00    +0.210 HD
ENDBRANCH   6  18
TORSDOF 1
ENDMDL
MODEL 3
REMARK VINA RESULT:    -9.478      1.449      4.229
REMARK INTER + INTRA:          -9.755
REMARK INTER:                  -9.755
REMARK INTRA:                   0.000
REMARK UNBOUND:                 0.000
REMARK  Name = ZINC000071325821
REMARK  4 active torsions:
REMARK  status: ('A' for Active; 'I' for Inactive)
REMARK    1  A    between atoms: C_1  and  C_2
REMARK    2  A    between atoms: C_6  and  C_7
REMARK    3  A    between atoms: C_6  and  O_8
REMARK    4  A    between atoms: C_14  and  C_15
REMARK                            x       y       z     vdW  Elec       q    Type
REMARK                         _______ _______ _______ _____ _____    ______ ____
ROOT
ATOM      1  C   UNL     1       0.120   1.489 -20.891  0.00  0.00    +0.039 C 
ATOM      2  C   UNL     1      -0.678   2.071 -21.735  0.00  0.00    -0.073 C 
ATOM      3  C   UNL     1      -0.123   2.519 -22.821  0.00  0.00    -0.061 C 
ATOM      4  C   UNL     1       1.147   2.407 -23.075  0.00  0.00    +0.034 C 
ATOM      5  C   UNL     1       1.376   2.954 -24.232  0.00  0.00    +0.039 C 
ATOM      6  C   UNL     1       0.248   3.404 -24.694  0.00  0.00    +0.073 C 
ATOM      7  C   UNL     1       0.970   3.783 -25.707  0.00  0.00    +0.042 C 
ATOM      8  C   UNL     1      -0.679   3.135 -23.823  0.00  0.00    +0.087 C 
ATOM      9  C   UNL     1      -1.929   3.455 -23.984  0.00  0.00    +0.190 C 
ATOM     10  O   UNL     1      -2.379   4.076 -25.034  0.00  0.00    -0.460 OA
ATOM     11  C   UNL     1      -3.660   4.242 -24.883  0.00  0.00    +0.311 C 
ATOM     12  C   UNL     1      -4.000   3.724 -23.740  0.00  0.00    +0.101 C 
ATOM     13  C   UNL     1      -5.200   3.698 -23.241  0.00  0.00    +0.019 C 
ATOM     14  O   UNL     1      -4.460   4.824 -25.727  0.00  0.00    -0.251 OA
ATOM     15  C   UNL     1      -2.931   3.238 -23.184  0.00  0.00    +0.044 C 
ATOM     16  C   UNL     1      -2.931   2.647 -22.026  0.00  0.00    +0.012 C 
ATOM     17  C   UNL     1      -1.929   2.128 -21.382  0.00  0.00    +0.031 C 
ENDROOT
BRANCH   6  18
ATOM     18  O   UNL     1      -0.730   3.933 -25.368  0.00  0.00    -0.388 OA
ATOM     19  H   UNL     1      -0.822   4.867 -25.125  0.00  0.00    +0.210 HD
ENDBRANCH   6  18
TORSDOF 1
ENDMDL
MODEL 4
REMARK VINA RESULT:    -8.982      1.929      5.139
REMARK INTER + INTRA:          -9.245
REMARK INTER:                  -9.245
REMARK INTRA:                   0.000
REMARK UNBOUND:                 0.000
REMARK  Name = ZINC000071325821
REMARK  4 active torsions:
REMARK  status: ('A' for Active; 'I' for Inactive)
REMARK    1  A    between atoms: C_1  and  C_2
REMARK    2  A    between atoms: C_6  and  C_7
REMARK    3  A    between atoms: C_6  and  O_8
REMARK    4  A    between atoms: C_14  and  C_15
REMARK                            x       y       z     vdW  Elec       q    Type
REMARK                         _______ _______ _______ _____ _____    ______ ____
ROOT
ATOM      1  C   UNL     1       1.204   3.369 -25.559  0.00  0.00    +0.039 C 
ATOM      2  C   UNL     1       0.090   3.295 -24.892  0.00  0.00    -0.073 C 
ATOM      3  C   UNL     1       0.173   2.762 -23.710  0.00  0.00    -0.061 C 
ATOM      4  C   UNL     1       1.285   2.322 -23.200  0.00  0.00    +0.034 C 
ATOM      5  C   UNL     1       1.026   1.854 -22.014  0.00  0.00    +0.039 C 
ATOM      6  C   UNL     1      -0.246   2.005 -21.792  0.00  0.00    +0.073 C 
ATOM      7  C   UNL     1       0.027   1.452 -20.648  0.00  0.00    +0.042 C 
ATOM      8  C   UNL     1      -0.774   2.566 -22.840  0.00  0.00    +0.087 C 
ATOM      9  C   UNL     1      -2.037   2.855 -22.938  0.00  0.00    +0.190 C 
ATOM     10  O   UNL     1      -2.902   2.613 -21.998  0.00  0.00    -0.460 OA
ATOM     11  C   UNL     1      -4.066   3.020 -22.410  0.00  0.00    +0.311 C 
ATOM     12  C   UNL     1      -3.920   3.514 -23.604  0.00  0.00    +0.101 C 
ATOM     13  C   UNL     1      -4.863   4.020 -24.341  0.00  0.00    +0.019 C 
ATOM     14  O   UNL     1      -5.181   2.947 -21.744  0.00  0.00    -0.251 OA
ATOM     15  C   UNL     1      -2.666   3.412 -23.930  0.00  0.00    +0.044 C 
ATOM     16  C   UNL     1      -2.188   3.816 -25.069  0.00  0.00    +0.012 C 
ATOM     17  C   UNL     1      -0.962   3.764 -25.497  0.00  0.00    +0.031 C 
ENDROOT
BRANCH   6  18
ATOM     18  O   UNL     1      -1.461   2.040 -21.330  0.00  0.00    -0.388 OA
ATOM     19  H   UNL     1      -1.960   1.284 -21.675  0.00  0.00    +0.210 HD
ENDBRANCH   6  18
TORSDOF 1
ENDMDL
MODEL 5
REMARK VINA RESULT:    -8.913      0.934      3.994
REMARK INTER + INTRA:          -9.173
REMARK INTER:                  -9.173
REMARK INTRA:                   0.000
REMARK UNBOUND:                 0.000
REMARK  Name = ZINC000071325821
REMARK  4 active torsions:
REMARK  status: ('A' for Active; 'I' for Inactive)
REMARK    1  A    between atoms: C_1  and  C_2
REMARK    2  A    between atoms: C_6  and  C_7
REMARK    3  A    between atoms: C_6  and  O_8
REMARK    4  A    between atoms: C_14  and  C_15
REMARK                            x       y       z     vdW  Elec       q    Type
REMARK                         _______ _______ _______ _____ _____    ______ ____
ROOT
ATOM      1  C   UNL     1      -3.358   3.004 -19.912  0.00  0.00    +0.039 C 
ATOM      2  C   UNL     1      -3.332   3.066 -21.210  0.00  0.00    -0.073 C 
ATOM      3  C   UNL     1      -2.192   2.783 -21.767  0.00  0.00    -0.061 C 
ATOM      4  C   UNL     1      -1.129   2.456 -21.094  0.00  0.00    +0.034 C 
ATOM      5  C   UNL     1      -0.168   2.238 -21.943  0.00  0.00    +0.039 C 
ATOM      6  C   UNL     1      -0.637   2.430 -23.140  0.00  0.00    +0.073 C 
ATOM      7  C   UNL     1       0.568   2.120 -23.515  0.00  0.00    +0.042 C 
ATOM      8  C   UNL     1      -1.889   2.767 -23.032  0.00  0.00    +0.087 C 
ATOM      9  C   UNL     1      -2.651   3.030 -24.051  0.00  0.00    +0.190 C 
ATOM     10  O   UNL     1      -2.240   2.982 -25.284  0.00  0.00    -0.460 OA
ATOM     11  C   UNL     1      -3.239   3.297 -26.053  0.00  0.00    +0.311 C 
ATOM     12  C   UNL     1      -4.268   3.538 -25.295  0.00  0.00    +0.101 C 
ATOM     13  C   UNL     1      -5.453   3.884 -25.704  0.00  0.00    +0.019 C 
ATOM     14  O   UNL     1      -3.215   3.359 -27.351  0.00  0.00    -0.251 OA
ATOM     15  C   UNL     1      -3.905   3.373 -24.058  0.00  0.00    +0.044 C 
ATOM     16  C   UNL     1      -4.706   3.539 -23.048  0.00  0.00    +0.012 C 
ATOM     17  C   UNL     1      -4.451   3.402 -21.781  0.00  0.00    +0.031 C 
ENDROOT
BRANCH   6  18
ATOM     18  O   UNL     1      -0.855   2.557 -24.415  0.00  0.00    -0.388 OA
ATOM     19  H   UNL     1      -1.644   3.103 -24.556  0.00  0.00    +0.210 HD
ENDBRANCH   6  18
TORSDOF 1
ENDMDL
MODEL 6
REMARK VINA RESULT:    -8.901      1.858      4.164
REMARK INTER + INTRA:          -9.161
REMARK INTER:                  -9.161
REMARK INTRA:                   0.000
REMARK UNBOUND:                 0.000
REMARK  Name = ZINC000071325821
REMARK  4 active torsions:
REMARK  status: ('A' for Active; 'I' for Inactive)
REMARK    1  A    between atoms: C_1  and  C_2
REMARK    2  A    between atoms: C_6  and  C_7
REMARK    3  A    between atoms: C_6  and  O_8
REMARK    4  A    between atoms: C_14  and  C_15
REMARK                            x       y       z     vdW  Elec       q    Type
REMARK                         _______ _______ _______ _____ _____    ______ ____
ROOT
ATOM      1  C   UNL     1      -2.966   3.654 -27.250  0.00  0.00    +0.039 C 
ATOM      2  C   UNL     1      -3.106   3.562 -25.961  0.00  0.00    -0.073 C 
ATOM      3  C   UNL     1      -2.004   3.569 -25.272  0.00  0.00    -0.061 C 
ATOM      4  C   UNL     1      -0.824   3.661 -25.809  0.00  0.00    +0.034 C 
ATOM      5  C   UNL     1       0.056   3.640 -24.852  0.00  0.00    +0.039 C 
ATOM      6  C   UNL     1      -0.580   3.535 -23.723  0.00  0.00    +0.073 C 
ATOM      7  C   UNL     1       0.612   3.558 -23.205  0.00  0.00    +0.042 C 
ATOM      8  C   UNL     1      -1.854   3.492 -23.982  0.00  0.00    +0.087 C 
ATOM      9  C   UNL     1      -2.768   3.388 -23.064  0.00  0.00    +0.190 C 
ATOM     10  O   UNL     1      -2.503   3.317 -21.794  0.00  0.00    -0.460 OA
ATOM     11  C   UNL     1      -3.630   3.221 -21.153  0.00  0.00    +0.311 C 
ATOM     12  C   UNL     1      -4.592   3.232 -22.028  0.00  0.00    +0.101 C 
ATOM     13  C   UNL     1      -5.863   3.155 -21.767  0.00  0.00    +0.019 C 
ATOM     14  O   UNL     1      -3.771   3.129 -19.864  0.00  0.00    -0.251 OA
ATOM     15  C   UNL     1      -4.059   3.336 -23.209  0.00  0.00    +0.044 C 
ATOM     16  C   UNL     1      -4.754   3.375 -24.307  0.00  0.00    +0.012 C 
ATOM     17  C   UNL     1      -4.330   3.476 -25.531  0.00  0.00    +0.031 C 
ENDROOT
BRANCH   6  18
ATOM     18  O   UNL     1      -0.967   3.436 -22.486  0.00  0.00    -0.388 OA
ATOM     19  H   UNL     1      -1.630   2.733 -22.411  0.00  0.00    +0.210 HD
ENDBRANCH   6  18
TORSDOF 1
ENDMDL
MODEL 7
REMARK VINA RESULT:    -8.865      1.950      3.840
REMARK INTER + INTRA:          -9.124
REMARK INTER:                  -9.124
REMARK INTRA:                   0.000
REMARK UNBOUND:                 0.000
REMARK  Name = ZINC000071325821
REMARK  4 active torsions:
REMARK  status: ('A' for Active; 'I' for Inactive)
REMARK    1  A    between atoms: C_1  and  C_2
REMARK    2  A    between atoms: C_6  and  C_7
REMARK    3  A    between atoms: C_6  and  O_8
REMARK    4  A    between atoms: C_14  and  C_15
REMARK                            x       y       z     vdW  Elec       q    Type
REMARK                         _______ _______ _______ _____ _____    ______ ____
ROOT
ATOM      1  C   UNL     1       0.877   2.888 -23.582  0.00  0.00    +0.039 C 
ATOM      2  C   UNL     1      -0.383   2.915 -23.260  0.00  0.00    -0.073 C 
ATOM      3  C   UNL     1      -1.209   3.164 -24.231  0.00  0.00    -0.061 C 
ATOM      4  C   UNL     1      -0.830   3.378 -25.456  0.00  0.00    +0.034 C 
ATOM      5  C   UNL     1      -1.892   3.595 -26.174  0.00  0.00    +0.039 C 
ATOM      6  C   UNL     1      -2.928   3.515 -25.393  0.00  0.00    +0.073 C 
ATOM      7  C   UNL     1      -3.596   3.776 -26.477  0.00  0.00    +0.042 C 
ATOM      8  C   UNL     1      -2.506   3.249 -24.191  0.00  0.00    +0.087 C 
ATOM      9  C   UNL     1      -3.297   3.105 -23.170  0.00  0.00    +0.190 C 
ATOM     10  O   UNL     1      -4.590   3.212 -23.244  0.00  0.00    -0.460 OA
ATOM     11  C   UNL     1      -5.079   3.014 -22.056  0.00  0.00    +0.311 C 
ATOM     12  C   UNL     1      -4.087   2.784 -21.247  0.00  0.00    +0.101 C 
ATOM     13  C   UNL     1      -4.181   2.541 -19.974  0.00  0.00    +0.019 C 
ATOM     14  O   UNL     1      -6.338   3.040 -21.733  0.00  0.00    -0.251 OA
ATOM     15  C   UNL     1      -2.985   2.841 -21.935  0.00  0.00    +0.044 C 
ATOM     16  C   UNL     1      -1.808   2.655 -21.418  0.00  0.00    +0.012 C 
ATOM     17  C   UNL     1      -0.649   2.688 -22.007  0.00  0.00    +0.031 C 
ENDROOT
BRANCH   6  18
ATOM     18  O   UNL     1      -4.103   3.490 -24.838  0.00  0.00    -0.388 OA
ATOM     19  H   UNL     1      -4.585   2.704 -25.136  0.00  0.00    +0.210 HD
ENDBRANCH   6  18
TORSDOF 1
ENDMDL
MODEL 8
REMARK VINA RESULT:    -8.173      1.992      4.902
REMARK INTER + INTRA:          -8.412
REMARK INTER:                  -8.412
REMARK INTRA:                   0.000
REMARK UNBOUND:                 0.000
REMARK  Name = ZINC000071325821
REMARK  4 active torsions:
REMARK  status: ('A' for Active; 'I' for Inactive)
REMARK    1  A    between atoms: C_1  and  C_2
REMARK    2  A    between atoms: C_6  and  C_7
REMARK    3  A    between atoms: C_6  and  O_8
REMARK    4  A    between atoms: C_14  and  C_15
REMARK                            x       y       z     vdW  Elec       q    Type
REMARK                         _______ _______ _______ _____ _____    ______ ____
ROOT
ATOM      1  C   UNL     1       1.036   2.963 -22.928  0.00  0.00    +0.039 C 
ATOM      2  C   UNL     1      -0.143   3.042 -23.470  0.00  0.00    -0.073 C 
ATOM      3  C   UNL     1      -1.148   2.905 -22.657  0.00  0.00    -0.061 C 
ATOM      4  C   UNL     1      -1.014   2.702 -21.380  0.00  0.00    +0.034 C 
ATOM      5  C   UNL     1      -2.202   2.611 -20.860  0.00  0.00    +0.039 C 
ATOM      6  C   UNL     1      -3.071   2.758 -21.816  0.00  0.00    +0.073 C 
ATOM      7  C   UNL     1      -3.942   2.600 -20.864  0.00  0.00    +0.042 C 
ATOM      8  C   UNL     1      -2.420   2.940 -22.927  0.00  0.00    +0.087 C 
ATOM      9  C   UNL     1      -3.000   3.120 -24.076  0.00  0.00    +0.190 C 
ATOM     10  O   UNL     1      -4.290   3.136 -24.233  0.00  0.00    -0.460 OA
ATOM     11  C   UNL     1      -4.539   3.336 -25.492  0.00  0.00    +0.311 C 
ATOM     12  C   UNL     1      -3.403   3.444 -26.115  0.00  0.00    +0.101 C 
ATOM     13  C   UNL     1      -3.246   3.649 -27.389  0.00  0.00    +0.019 C 
ATOM     14  O   UNL     1      -5.718   3.415 -26.036  0.00  0.00    -0.251 OA
ATOM     15  C   UNL     1      -2.451   3.310 -25.240  0.00  0.00    +0.044 C 
ATOM     16  C   UNL     1      -1.188   3.367 -25.541  0.00  0.00    +0.012 C 
ATOM     17  C   UNL     1      -0.161   3.247 -24.754  0.00  0.00    +0.031 C 
ENDROOT
BRANCH   6  18
ATOM     18  O   UNL     1      -4.122   2.872 -22.573  0.00  0.00    -0.388 OA
ATOM     19  H   UNL     1      -4.650   3.630 -22.280  0.00  0.00    +0.210 HD
ENDBRANCH   6  18
TORSDOF 1
ENDMDL
MODEL 9
REMARK VINA RESULT:    -8.100      3.067      5.329
REMARK INTER + INTRA:          -8.337
REMARK INTER:                  -8.337
REMARK INTRA:                   0.000
REMARK UNBOUND:                 0.000
REMARK  Name = ZINC000071325821
REMARK  4 active torsions:
REMARK  status: ('A' for Active; 'I' for Inactive)
REMARK    1  A    between atoms: C_1  and  C_2
REMARK    2  A    between atoms: C_6  and  C_7
REMARK    3  A    between atoms: C_6  and  O_8
REMARK    4  A    between atoms: C_14  and  C_15
REMARK                            x       y       z     vdW  Elec       q    Type
REMARK                         _______ _______ _______ _____ _____    ______ ____
ROOT
ATOM      1  C   UNL     1       0.926   4.122 -25.504  0.00  0.00    +0.039 C 
ATOM      2  C   UNL     1       1.440   3.393 -24.558  0.00  0.00    -0.073 C 
ATOM      3  C   UNL     1       0.599   2.929 -23.682  0.00  0.00    -0.061 C 
ATOM      4  C   UNL     1      -0.679   3.163 -23.723  0.00  0.00    +0.034 C 
ATOM      5  C   UNL     1      -1.230   2.560 -22.712  0.00  0.00    +0.039 C 
ATOM      6  C   UNL     1      -0.293   1.954 -22.046  0.00  0.00    +0.073 C 
ATOM      7  C   UNL     1      -1.271   1.583 -21.273  0.00  0.00    +0.042 C 
ATOM      8  C   UNL     1       0.838   2.182 -22.645  0.00  0.00    +0.087 C 
ATOM      9  C   UNL     1       1.977   1.713 -22.228  0.00  0.00    +0.190 C 
ATOM     10  O   UNL     1       2.101   0.970 -21.170  0.00  0.00    -0.460 OA
ATOM     11  C   UNL     1       3.359   0.673 -21.032  0.00  0.00    +0.311 C 
ATOM     12  C   UNL     1       4.013   1.234 -22.007  0.00  0.00    +0.101 C 
ATOM     13  C   UNL     1       5.295   1.164 -22.206  0.00  0.00    +0.019 C 
ATOM     14  O   UNL     1       3.875  -0.056 -20.087  0.00  0.00    -0.251 OA
ATOM     15  C   UNL     1       3.158   1.877 -22.746  0.00  0.00    +0.044 C 
ATOM     16  C   UNL     1       3.493   2.549 -23.807  0.00  0.00    +0.012 C 
ATOM     17  C   UNL     1       2.729   3.223 -24.614  0.00  0.00    +0.031 C 
ENDROOT
BRANCH   6  18
ATOM     18  O   UNL     1       0.440   1.270 -21.218  0.00  0.00    -0.388 OA
ATOM     19  H   UNL     1       0.242   1.543 -20.309  0.00  0.00    +0.210 HD
ENDBRANCH   6  18
TORSDOF 1
ENDMDL
