MODEL 1
REMARK VINA RESULT:    -7.100      0.000      0.000
REMARK INTER + INTRA:          -7.786
REMARK INTER:                  -7.715
REMARK INTRA:                  -0.070
REMARK UNBOUND:                -0.063
REMARK  Name = ZINC000000031166
REMARK  2 active torsions:
REMARK  status: ('A' for Active; 'I' for Inactive)
REMARK    1  A    between atoms: O_1  and  C_2
REMARK    2  A    between atoms: C_2  and  C_3
REMARK                            x       y       z     vdW  Elec       q    Type
REMARK                         _______ _______ _______ _____ _____    ______ ____
ROOT
ATOM      1  C   UNL     1      -2.668   3.779 -24.466  0.00  0.00    +0.063 C 
ATOM      2  C   UNL     1      -3.559   4.056 -25.370  0.00  0.00    +0.016 C 
ATOM      3  C   UNL     1      -4.819   4.095 -25.050  0.00  0.00    +0.051 C 
ATOM      4  C   UNL     1      -5.186   3.857 -23.826  0.00  0.00    +0.131 C 
ATOM      5  N   UNL     1      -4.295   3.580 -22.921  0.00  0.00    +0.238 N 
ATOM      6  H   UNL     1      -5.308   3.682 -22.986  0.00  0.00    +0.204 HD
ATOM      7  C   UNL     1      -4.663   3.342 -21.697  0.00  0.00    +0.131 C 
ATOM      8  C   UNL     1      -3.771   3.064 -20.793  0.00  0.00    +0.051 C 
ATOM      9  C   UNL     1      -2.511   3.025 -21.113  0.00  0.00    +0.011 C 
ATOM     10  C   UNL     1      -2.144   3.263 -22.337  0.00  0.00    +0.055 C 
ATOM     11  C   UNL     1      -3.036   3.541 -23.242  0.00  0.00    +0.070 C 
ENDROOT
BRANCH   1  12
ATOM     12  C   UNL     1      -1.408   3.739 -24.785  0.00  0.00    +0.164 C 
BRANCH  12  13
ATOM     13  O   UNL     1      -1.051   3.346 -25.971  0.00  0.00    -0.395 OA
ATOM     14  H   UNL     1      -1.634   2.626 -26.262  0.00  0.00    +0.209 HD
ENDBRANCH  12  13
ENDBRANCH   1  12
TORSDOF 2
ENDMDL
MODEL 2
REMARK VINA RESULT:    -7.089      1.083      1.378
REMARK INTER + INTRA:          -7.774
REMARK INTER:                  -7.716
REMARK INTRA:                  -0.058
REMARK UNBOUND:                -0.063
REMARK  Name = ZINC000000031166
REMARK  2 active torsions:
REMARK  status: ('A' for Active; 'I' for Inactive)
REMARK    1  A    between atoms: O_1  and  C_2
REMARK    2  A    between atoms: C_2  and  C_3
REMARK                            x       y       z     vdW  Elec       q    Type
REMARK                         _______ _______ _______ _____ _____    ______ ____
ROOT
ATOM      1  C   UNL     1      -2.361   3.395 -23.710  0.00  0.00    +0.063 C 
ATOM      2  C   UNL     1      -2.532   4.008 -24.844  0.00  0.00    +0.016 C 
ATOM      3  C   UNL     1      -3.718   4.406 -25.196  0.00  0.00    +0.051 C 
ATOM      4  C   UNL     1      -4.734   4.191 -24.415  0.00  0.00    +0.131 C 
ATOM      5  N   UNL     1      -4.565   3.578 -23.280  0.00  0.00    +0.238 N 
ATOM      6  H   UNL     1      -5.328   3.992 -23.816  0.00  0.00    +0.204 HD
ATOM      7  C   UNL     1      -5.581   3.364 -22.499  0.00  0.00    +0.131 C 
ATOM      8  C   UNL     1      -5.411   2.751 -21.365  0.00  0.00    +0.051 C 
ATOM      9  C   UNL     1      -4.224   2.353 -21.013  0.00  0.00    +0.011 C 
ATOM     10  C   UNL     1      -3.208   2.568 -21.795  0.00  0.00    +0.055 C 
ATOM     11  C   UNL     1      -3.378   3.181 -22.929  0.00  0.00    +0.070 C 
ENDROOT
BRANCH   1  12
ATOM     12  C   UNL     1      -1.175   2.997 -23.358  0.00  0.00    +0.164 C 
BRANCH  12  13
ATOM     13  O   UNL     1      -0.569   2.076 -24.045  0.00  0.00    -0.395 OA
ATOM     14  H   UNL     1       0.354   2.009 -23.752  0.00  0.00    +0.209 HD
ENDBRANCH  12  13
ENDBRANCH   1  12
TORSDOF 2
ENDMDL
MODEL 3
REMARK VINA RESULT:    -7.034      1.505      2.495
REMARK INTER + INTRA:          -7.714
REMARK INTER:                  -7.650
REMARK INTRA:                  -0.064
REMARK UNBOUND:                -0.063
REMARK  Name = ZINC000000031166
REMARK  2 active torsions:
REMARK  status: ('A' for Active; 'I' for Inactive)
REMARK    1  A    between atoms: O_1  and  C_2
REMARK    2  A    between atoms: C_2  and  C_3
REMARK                            x       y       z     vdW  Elec       q    Type
REMARK                         _______ _______ _______ _____ _____    ______ ____
ROOT
ATOM      1  C   UNL     1      -4.077   3.632 -23.926  0.00  0.00    +0.063 C 
ATOM      2  C   UNL     1      -5.245   3.734 -23.365  0.00  0.00    +0.016 C 
ATOM      3  C   UNL     1      -5.424   3.301 -22.152  0.00  0.00    +0.051 C 
ATOM      4  C   UNL     1      -4.435   2.766 -21.501  0.00  0.00    +0.131 C 
ATOM      5  N   UNL     1      -3.266   2.663 -22.061  0.00  0.00    +0.238 N 
ATOM      6  H   UNL     1      -3.706   2.431 -21.171  0.00  0.00    +0.204 HD
ATOM      7  C   UNL     1      -2.277   2.128 -21.410  0.00  0.00    +0.131 C 
ATOM      8  C   UNL     1      -1.109   2.025 -21.971  0.00  0.00    +0.051 C 
ATOM      9  C   UNL     1      -0.930   2.458 -23.184  0.00  0.00    +0.011 C 
ATOM     10  C   UNL     1      -1.919   2.994 -23.835  0.00  0.00    +0.055 C 
ATOM     11  C   UNL     1      -3.088   3.096 -23.274  0.00  0.00    +0.070 C 
ENDROOT
BRANCH   1  12
ATOM     12  C   UNL     1      -3.898   4.065 -25.139  0.00  0.00    +0.164 C 
BRANCH  12  13
ATOM     13  O   UNL     1      -4.068   5.324 -25.410  0.00  0.00    -0.395 OA
ATOM     14  H   UNL     1      -4.677   5.715 -24.763  0.00  0.00    +0.209 HD
ENDBRANCH  12  13
ENDBRANCH   1  12
TORSDOF 2
ENDMDL
MODEL 4
REMARK VINA RESULT:    -6.963      0.991      2.651
REMARK INTER + INTRA:          -7.637
REMARK INTER:                  -7.568
REMARK INTRA:                  -0.069
REMARK UNBOUND:                -0.063
REMARK  Name = ZINC000000031166
REMARK  2 active torsions:
REMARK  status: ('A' for Active; 'I' for Inactive)
REMARK    1  A    between atoms: O_1  and  C_2
REMARK    2  A    between atoms: C_2  and  C_3
REMARK                            x       y       z     vdW  Elec       q    Type
REMARK                         _______ _______ _______ _____ _____    ______ ____
ROOT
ATOM      1  C   UNL     1      -2.027   3.210 -23.965  0.00  0.00    +0.063 C 
ATOM      2  C   UNL     1      -0.982   2.746 -23.347  0.00  0.00    +0.016 C 
ATOM      3  C   UNL     1      -1.086   2.316 -22.125  0.00  0.00    +0.051 C 
ATOM      4  C   UNL     1      -2.236   2.350 -21.520  0.00  0.00    +0.131 C 
ATOM      5  N   UNL     1      -3.282   2.814 -22.136  0.00  0.00    +0.238 N 
ATOM      6  H   UNL     1      -3.047   2.423 -21.225  0.00  0.00    +0.204 HD
ATOM      7  C   UNL     1      -4.432   2.848 -21.531  0.00  0.00    +0.131 C 
ATOM      8  C   UNL     1      -5.478   3.312 -22.149  0.00  0.00    +0.051 C 
ATOM      9  C   UNL     1      -5.373   3.742 -23.371  0.00  0.00    +0.011 C 
ATOM     10  C   UNL     1      -4.224   3.708 -23.976  0.00  0.00    +0.055 C 
ATOM     11  C   UNL     1      -3.177   3.244 -23.359  0.00  0.00    +0.070 C 
ENDROOT
BRANCH   1  12
ATOM     12  C   UNL     1      -1.923   3.640 -25.187  0.00  0.00    +0.164 C 
BRANCH  12  13
ATOM     13  O   UNL     1      -0.896   3.303 -25.908  0.00  0.00    -0.395 OA
ATOM     14  H   UNL     1      -0.845   3.880 -26.687  0.00  0.00    +0.209 HD
ENDBRANCH  12  13
ENDBRANCH   1  12
TORSDOF 2
ENDMDL
MODEL 5
REMARK VINA RESULT:    -6.800      1.357      3.236
REMARK INTER + INTRA:          -7.460
REMARK INTER:                  -7.389
REMARK INTRA:                  -0.071
REMARK UNBOUND:                -0.063
REMARK  Name = ZINC000000031166
REMARK  2 active torsions:
REMARK  status: ('A' for Active; 'I' for Inactive)
REMARK    1  A    between atoms: O_1  and  C_2
REMARK    2  A    between atoms: C_2  and  C_3
REMARK                            x       y       z     vdW  Elec       q    Type
REMARK                         _______ _______ _______ _____ _____    ______ ____
ROOT
ATOM      1  C   UNL     1      -2.074   2.633 -22.604  0.00  0.00    +0.063 C 
ATOM      2  C   UNL     1      -2.325   2.605 -21.329  0.00  0.00    +0.016 C 
ATOM      3  C   UNL     1      -3.490   2.978 -20.888  0.00  0.00    +0.051 C 
ATOM      4  C   UNL     1      -4.402   3.380 -21.721  0.00  0.00    +0.131 C 
ATOM      5  N   UNL     1      -4.152   3.409 -22.997  0.00  0.00    +0.238 N 
ATOM      6  H   UNL     1      -4.924   3.625 -22.368  0.00  0.00    +0.204 HD
ATOM      7  C   UNL     1      -5.064   3.810 -23.830  0.00  0.00    +0.131 C 
ATOM      8  C   UNL     1      -4.812   3.838 -25.105  0.00  0.00    +0.051 C 
ATOM      9  C   UNL     1      -3.648   3.465 -25.546  0.00  0.00    +0.011 C 
ATOM     10  C   UNL     1      -2.735   3.063 -24.713  0.00  0.00    +0.055 C 
ATOM     11  C   UNL     1      -2.987   3.035 -23.437  0.00  0.00    +0.070 C 
ENDROOT
BRANCH   1  12
ATOM     12  C   UNL     1      -0.909   2.259 -23.045  0.00  0.00    +0.164 C 
BRANCH  12  13
ATOM     13  O   UNL     1      -0.341   1.196 -22.559  0.00  0.00    -0.395 OA
ATOM     14  H   UNL     1      -1.006   0.654 -22.104  0.00  0.00    +0.209 HD
ENDBRANCH  12  13
ENDBRANCH   1  12
TORSDOF 2
ENDMDL
MODEL 6
REMARK VINA RESULT:    -6.688      1.397      2.554
REMARK INTER + INTRA:          -7.338
REMARK INTER:                  -7.310
REMARK INTRA:                  -0.027
REMARK UNBOUND:                -0.063
REMARK  Name = ZINC000000031166
REMARK  2 active torsions:
REMARK  status: ('A' for Active; 'I' for Inactive)
REMARK    1  A    between atoms: O_1  and  C_2
REMARK    2  A    between atoms: C_2  and  C_3
REMARK                            x       y       z     vdW  Elec       q    Type
REMARK                         _______ _______ _______ _____ _____    ______ ____
ROOT
ATOM      1  C   UNL     1      -3.456   3.759 -24.582  0.00  0.00    +0.063 C 
ATOM      2  C   UNL     1      -2.244   3.731 -25.051  0.00  0.00    +0.016 C 
ATOM      3  C   UNL     1      -1.265   3.324 -24.299  0.00  0.00    +0.051 C 
ATOM      4  C   UNL     1      -1.497   2.946 -23.077  0.00  0.00    +0.131 C 
ATOM      5  N   UNL     1      -2.709   2.974 -22.607  0.00  0.00    +0.238 N 
ATOM      6  H   UNL     1      -1.774   2.721 -22.288  0.00  0.00    +0.204 HD
ATOM      7  C   UNL     1      -2.941   2.596 -21.385  0.00  0.00    +0.131 C 
ATOM      8  C   UNL     1      -4.153   2.625 -20.916  0.00  0.00    +0.051 C 
ATOM      9  C   UNL     1      -5.132   3.031 -21.668  0.00  0.00    +0.011 C 
ATOM     10  C   UNL     1      -4.900   3.409 -22.889  0.00  0.00    +0.055 C 
ATOM     11  C   UNL     1      -3.688   3.381 -23.360  0.00  0.00    +0.070 C 
ENDROOT
BRANCH   1  12
ATOM     12  C   UNL     1      -4.435   4.166 -25.334  0.00  0.00    +0.164 C 
BRANCH  12  13
ATOM     13  O   UNL     1      -4.875   3.408 -26.293  0.00  0.00    -0.395 OA
ATOM     14  H   UNL     1      -4.268   3.457 -27.048  0.00  0.00    +0.209 HD
ENDBRANCH  12  13
ENDBRANCH   1  12
TORSDOF 2
ENDMDL
MODEL 7
REMARK VINA RESULT:    -6.636      2.233      3.200
REMARK INTER + INTRA:          -7.282
REMARK INTER:                  -7.213
REMARK INTRA:                  -0.068
REMARK UNBOUND:                -0.063
REMARK  Name = ZINC000000031166
REMARK  2 active torsions:
REMARK  status: ('A' for Active; 'I' for Inactive)
REMARK    1  A    between atoms: O_1  and  C_2
REMARK    2  A    between atoms: C_2  and  C_3
REMARK                            x       y       z     vdW  Elec       q    Type
REMARK                         _______ _______ _______ _____ _____    ______ ____
ROOT
ATOM      1  C   UNL     1      -3.840   3.363 -23.142  0.00  0.00    +0.063 C 
ATOM      2  C   UNL     1      -4.150   3.770 -24.337  0.00  0.00    +0.016 C 
ATOM      3  C   UNL     1      -3.254   3.764 -25.279  0.00  0.00    +0.051 C 
ATOM      4  C   UNL     1      -2.047   3.352 -25.026  0.00  0.00    +0.131 C 
ATOM      5  N   UNL     1      -1.736   2.945 -23.831  0.00  0.00    +0.238 N 
ATOM      6  H   UNL     1      -1.285   3.057 -24.738  0.00  0.00    +0.204 HD
ATOM      7  C   UNL     1      -0.530   2.533 -23.577  0.00  0.00    +0.131 C 
ATOM      8  C   UNL     1      -0.219   2.126 -22.382  0.00  0.00    +0.051 C 
ATOM      9  C   UNL     1      -1.115   2.132 -21.441  0.00  0.00    +0.011 C 
ATOM     10  C   UNL     1      -2.322   2.544 -21.694  0.00  0.00    +0.055 C 
ATOM     11  C   UNL     1      -2.633   2.951 -22.889  0.00  0.00    +0.070 C 
ENDROOT
BRANCH   1  12
ATOM     12  C   UNL     1      -4.736   3.369 -22.200  0.00  0.00    +0.164 C 
BRANCH  12  13
ATOM     13  O   UNL     1      -5.941   3.782 -22.454  0.00  0.00    -0.395 OA
ATOM     14  H   UNL     1      -6.403   3.120 -22.993  0.00  0.00    +0.209 HD
ENDBRANCH  12  13
ENDBRANCH   1  12
TORSDOF 2
ENDMDL
MODEL 8
REMARK VINA RESULT:    -6.598      2.155      4.021
REMARK INTER + INTRA:          -7.240
REMARK INTER:                  -7.173
REMARK INTRA:                  -0.067
REMARK UNBOUND:                -0.063
REMARK  Name = ZINC000000031166
REMARK  2 active torsions:
REMARK  status: ('A' for Active; 'I' for Inactive)
REMARK    1  A    between atoms: O_1  and  C_2
REMARK    2  A    between atoms: C_2  and  C_3
REMARK                            x       y       z     vdW  Elec       q    Type
REMARK                         _______ _______ _______ _____ _____    ______ ____
ROOT
ATOM      1  C   UNL     1      -2.957   3.002 -21.812  0.00  0.00    +0.063 C 
ATOM      2  C   UNL     1      -1.757   2.517 -21.696  0.00  0.00    +0.016 C 
ATOM      3  C   UNL     1      -1.061   2.240 -22.758  0.00  0.00    +0.051 C 
ATOM      4  C   UNL     1      -1.566   2.448 -23.938  0.00  0.00    +0.131 C 
ATOM      5  N   UNL     1      -2.766   2.934 -24.056  0.00  0.00    +0.238 N 
ATOM      6  H   UNL     1      -2.006   2.629 -24.662  0.00  0.00    +0.204 HD
ATOM      7  C   UNL     1      -3.271   3.142 -25.235  0.00  0.00    +0.131 C 
ATOM      8  C   UNL     1      -4.471   3.627 -25.352  0.00  0.00    +0.051 C 
ATOM      9  C   UNL     1      -5.167   3.904 -24.289  0.00  0.00    +0.011 C 
ATOM     10  C   UNL     1      -4.662   3.696 -23.110  0.00  0.00    +0.055 C 
ATOM     11  C   UNL     1      -3.461   3.210 -22.992  0.00  0.00    +0.070 C 
ENDROOT
BRANCH   1  12
ATOM     12  C   UNL     1      -3.652   3.279 -20.749  0.00  0.00    +0.164 C 
BRANCH  12  13
ATOM     13  O   UNL     1      -3.210   4.152 -19.894  0.00  0.00    -0.395 OA
ATOM     14  H   UNL     1      -2.465   3.772 -19.401  0.00  0.00    +0.209 HD
ENDBRANCH  12  13
ENDBRANCH   1  12
TORSDOF 2
ENDMDL
MODEL 9
REMARK VINA RESULT:    -6.202      2.050      3.700
REMARK INTER + INTRA:          -6.809
REMARK INTER:                  -6.746
REMARK INTRA:                  -0.063
REMARK UNBOUND:                -0.063
REMARK  Name = ZINC000000031166
REMARK  2 active torsions:
REMARK  status: ('A' for Active; 'I' for Inactive)
REMARK    1  A    between atoms: O_1  and  C_2
REMARK    2  A    between atoms: C_2  and  C_3
REMARK                            x       y       z     vdW  Elec       q    Type
REMARK                         _______ _______ _______ _____ _____    ______ ____
ROOT
ATOM      1  C   UNL     1       0.157   2.524 -23.457  0.00  0.00    +0.063 C 
ATOM      2  C   UNL     1       0.495   1.923 -22.356  0.00  0.00    +0.016 C 
ATOM      3  C   UNL     1      -0.394   1.716 -21.429  0.00  0.00    +0.051 C 
ATOM      4  C   UNL     1      -1.620   2.110 -21.605  0.00  0.00    +0.131 C 
ATOM      5  N   UNL     1      -1.959   2.711 -22.706  0.00  0.00    +0.238 N 
ATOM      6  H   UNL     1      -2.397   2.415 -21.835  0.00  0.00    +0.204 HD
ATOM      7  C   UNL     1      -3.185   3.105 -22.882  0.00  0.00    +0.131 C 
ATOM      8  C   UNL     1      -3.523   3.706 -23.983  0.00  0.00    +0.051 C 
ATOM      9  C   UNL     1      -2.635   3.913 -24.910  0.00  0.00    +0.011 C 
ATOM     10  C   UNL     1      -1.409   3.519 -24.734  0.00  0.00    +0.055 C 
ATOM     11  C   UNL     1      -1.070   2.918 -23.632  0.00  0.00    +0.070 C 
ENDROOT
BRANCH   1  12
ATOM     12  C   UNL     1       1.045   2.731 -24.384  0.00  0.00    +0.164 C 
BRANCH  12  13
ATOM     13  O   UNL     1       1.626   1.724 -24.963  0.00  0.00    -0.395 OA
ATOM     14  H   UNL     1       2.137   1.224 -24.307  0.00  0.00    +0.209 HD
ENDBRANCH  12  13
ENDBRANCH   1  12
TORSDOF 2
ENDMDL
