MODEL 1
REMARK VINA RESULT:    -8.852      0.000      0.000
REMARK INTER + INTRA:         -17.281
REMARK INTER:                 -15.682
REMARK INTRA:                  -1.599
REMARK UNBOUND:                -1.701
REMARK  Name = CCCCCCCCCCCC1=C(O)C(=O)C=C(Nc2ccc(NC(C)=O)cc2)C1=O                   ZINC000100393407
REMARK  15 active torsions:
REMARK  status: ('A' for Active; 'I' for Inactive)
REMARK    1  A    between atoms: C_1  and  C_2
REMARK    2  A    between atoms: C_2  and  C_3
REMARK    3  A    between atoms: C_3  and  C_4
REMARK    4  A    between atoms: C_4  and  C_5
REMARK    5  A    between atoms: C_5  and  C_6
REMARK    6  A    between atoms: C_6  and  C_7
REMARK    7  A    between atoms: C_7  and  C_8
REMARK    8  A    between atoms: C_8  and  C_9
REMARK    9  A    between atoms: C_9  and  C_10
REMARK   10  A    between atoms: C_10  and  C_11
REMARK   11  A    between atoms: C_11  and  C_12
REMARK   12  A    between atoms: C_18  and  N_19
REMARK   13  A    between atoms: N_19  and  C_20
REMARK   14  A    between atoms: C_23  and  N_24
REMARK   15  A    between atoms: C_25  and  C_26
REMARK                            x       y       z     vdW  Elec       q    Type
REMARK                         _______ _______ _______ _____ _____    ______ ____
ROOT
ATOM      1  C   UNL     1      -0.650   2.814 -22.435  0.00  0.00    -0.008 C 
ATOM      2  C   UNL     1      -0.568   4.013 -22.931  0.00  0.00    +0.228 C 
ATOM      3  C   UNL     1       0.545   4.420 -23.466  0.00  0.00    +0.227 C 
ATOM      4  C   UNL     1       1.575   3.628 -23.505  0.00  0.00    +0.077 C 
ATOM      5  C   UNL     1       1.493   2.429 -23.009  0.00  0.00    +0.022 C 
ATOM      6  O   UNL     1       0.627   5.618 -23.963  0.00  0.00    -0.284 OA
ATOM      7  O   UNL     1      -1.598   4.804 -22.892  0.00  0.00    -0.284 OA
ATOM      8  C   UNL     1       0.381   2.022 -22.474  0.00  0.00    -0.112 C 
ATOM      9  O   UNL     1       0.298   0.824 -21.977  0.00  0.00    -0.828 OA
ENDROOT
BRANCH   5  10
ATOM     10  N   UNL     1       2.524   1.638 -23.048  0.00  0.00    -0.315 N 
ATOM     11  H   UNL     1       2.425   0.717 -23.381  0.00  0.00    +0.152 HD
BRANCH  10  12
ATOM     12  C   UNL     1       3.685   2.063 -22.646  0.00  0.00    +0.031 A 
ATOM     13  C   UNL     1       4.052   1.882 -21.412  0.00  0.00    +0.025 A 
ATOM     14  C   UNL     1       5.213   2.307 -21.011  0.00  0.00    +0.025 A 
ATOM     15  C   UNL     1       6.007   2.912 -21.842  0.00  0.00    +0.033 A 
ATOM     16  C   UNL     1       5.640   3.093 -23.077  0.00  0.00    +0.025 A 
ATOM     17  C   UNL     1       4.479   2.668 -23.479  0.00  0.00    +0.025 A 
BRANCH  15  18
ATOM     18  N   UNL     1       7.169   3.337 -21.441  0.00  0.00    -0.286 N 
ATOM     19  H   UNL     1       7.945   2.733 -21.456  0.00  0.00    +0.155 HD
ATOM     20  C   UNL     1       7.304   4.560 -21.020  0.00  0.00    +0.214 C 
ATOM     21  O   UNL     1       6.278   5.358 -21.000  0.00  0.00    -0.276 OA
ATOM     22  C   UNL     1       8.465   4.984 -20.619  0.00  0.00    +0.109 C 
ENDBRANCH  15  18
ENDBRANCH  10  12
ENDBRANCH   5  10
BRANCH   1  23
ATOM     23  C   UNL     1      -1.762   2.407 -21.900  0.00  0.00    +0.038 C 
BRANCH  23  24
ATOM     24  C   UNL     1      -2.170   2.921 -20.778  0.00  0.00    +0.005 C 
BRANCH  24  25
ATOM     25  C   UNL     1      -3.441   3.110 -20.574  0.00  0.00    +0.000 C 
BRANCH  25  26
ATOM     26  C   UNL     1      -4.308   2.275 -21.063  0.00  0.00    +0.000 C 
BRANCH  26  27
ATOM     27  C   UNL     1      -5.461   2.706 -21.481  0.00  0.00    +0.000 C 
BRANCH  27  28
ATOM     28  C   UNL     1      -5.518   3.608 -22.416  0.00  0.00    +0.000 C 
BRANCH  28  29
ATOM     29  C   UNL     1      -4.882   3.426 -23.535  0.00  0.00    -0.000 C 
BRANCH  29  30
ATOM     30  C   UNL     1      -4.900   4.349 -24.450  0.00  0.00    -0.000 C 
BRANCH  30  31
ATOM     31  C   UNL     1      -3.986   4.366 -25.374  0.00  0.00    -0.000 C 
BRANCH  31  33
ATOM     32  C   UNL     1      -2.109   3.436 -26.199  0.00  0.00    +0.004 C 
ATOM     33  C   UNL     1      -3.240   3.319 -25.570  0.00  0.00    -0.003 C 
ENDBRANCH  31  33
ENDBRANCH  30  31
ENDBRANCH  29  30
ENDBRANCH  28  29
ENDBRANCH  27  28
ENDBRANCH  26  27
ENDBRANCH  25  26
ENDBRANCH  24  25
ENDBRANCH  23  24
ENDBRANCH   1  23
TORSDOF 13
ENDMDL
MODEL 2
REMARK VINA RESULT:    -8.745      1.442      3.093
REMARK INTER + INTRA:         -17.093
REMARK INTER:                 -14.947
REMARK INTRA:                  -2.146
REMARK UNBOUND:                -1.701
REMARK  Name = CCCCCCCCCCCC1=C(O)C(=O)C=C(Nc2ccc(NC(C)=O)cc2)C1=O                   ZINC000100393407
REMARK  15 active torsions:
REMARK  status: ('A' for Active; 'I' for Inactive)
REMARK    1  A    between atoms: C_1  and  C_2
REMARK    2  A    between atoms: C_2  and  C_3
REMARK    3  A    between atoms: C_3  and  C_4
REMARK    4  A    between atoms: C_4  and  C_5
REMARK    5  A    between atoms: C_5  and  C_6
REMARK    6  A    between atoms: C_6  and  C_7
REMARK    7  A    between atoms: C_7  and  C_8
REMARK    8  A    between atoms: C_8  and  C_9
REMARK    9  A    between atoms: C_9  and  C_10
REMARK   10  A    between atoms: C_10  and  C_11
REMARK   11  A    between atoms: C_11  and  C_12
REMARK   12  A    between atoms: C_18  and  N_19
REMARK   13  A    between atoms: N_19  and  C_20
REMARK   14  A    between atoms: C_23  and  N_24
REMARK   15  A    between atoms: C_25  and  C_26
REMARK                            x       y       z     vdW  Elec       q    Type
REMARK                         _______ _______ _______ _____ _____    ______ ____
ROOT
ATOM      1  C   UNL     1       0.549   2.326 -22.904  0.00  0.00    -0.008 C 
ATOM      2  C   UNL     1       0.588   1.900 -21.677  0.00  0.00    +0.228 C 
ATOM      3  C   UNL     1       1.731   1.623 -21.122  0.00  0.00    +0.227 C 
ATOM      4  C   UNL     1       2.834   1.772 -21.794  0.00  0.00    +0.077 C 
ATOM      5  C   UNL     1       2.794   2.198 -23.022  0.00  0.00    +0.022 C 
ATOM      6  O   UNL     1       1.771   1.197 -19.894  0.00  0.00    -0.284 OA
ATOM      7  O   UNL     1      -0.514   1.751 -21.004  0.00  0.00    -0.284 OA
ATOM      8  C   UNL     1       1.652   2.475 -23.577  0.00  0.00    -0.112 C 
ATOM      9  O   UNL     1       1.611   2.901 -24.804  0.00  0.00    -0.828 OA
ENDROOT
BRANCH   5  10
ATOM     10  N   UNL     1       3.896   2.347 -23.694  0.00  0.00    -0.315 N 
ATOM     11  H   UNL     1       4.022   1.868 -24.544  0.00  0.00    +0.152 HD
BRANCH  10  12
ATOM     12  C   UNL     1       4.831   3.129 -23.243  0.00  0.00    +0.031 A 
ATOM     13  C   UNL     1       4.633   4.412 -23.182  0.00  0.00    +0.025 A 
ATOM     14  C   UNL     1       5.569   5.194 -22.731  0.00  0.00    +0.025 A 
ATOM     15  C   UNL     1       6.703   4.694 -22.341  0.00  0.00    +0.033 A 
ATOM     16  C   UNL     1       6.902   3.410 -22.402  0.00  0.00    +0.025 A 
ATOM     17  C   UNL     1       5.966   2.628 -22.853  0.00  0.00    +0.025 A 
BRANCH  15  18
ATOM     18  N   UNL     1       7.639   5.476 -21.890  0.00  0.00    -0.286 N 
ATOM     19  H   UNL     1       8.246   5.928 -22.519  0.00  0.00    +0.155 HD
ATOM     20  C   UNL     1       7.772   5.659 -20.610  0.00  0.00    +0.214 C 
ATOM     21  O   UNL     1       6.970   5.060 -19.781  0.00  0.00    -0.276 OA
ATOM     22  C   UNL     1       8.708   6.440 -20.160  0.00  0.00    +0.109 C 
ENDBRANCH  15  18
ENDBRANCH  10  12
ENDBRANCH   5  10
BRANCH   1  23
ATOM     23  C   UNL     1      -0.593   2.602 -23.460  0.00  0.00    +0.038 C 
BRANCH  23  24
ATOM     24  C   UNL     1      -0.993   3.836 -23.543  0.00  0.00    +0.005 C 
BRANCH  24  25
ATOM     25  C   UNL     1      -1.996   4.144 -24.313  0.00  0.00    +0.000 C 
BRANCH  25  26
ATOM     26  C   UNL     1      -2.704   3.204 -24.864  0.00  0.00    +0.000 C 
BRANCH  26  27
ATOM     27  C   UNL     1      -3.910   3.456 -25.278  0.00  0.00    +0.000 C 
BRANCH  27  28
ATOM     28  C   UNL     1      -4.698   4.205 -24.564  0.00  0.00    +0.000 C 
BRANCH  28  29
ATOM     29  C   UNL     1      -5.500   3.663 -23.696  0.00  0.00    -0.000 C 
BRANCH  29  30
ATOM     30  C   UNL     1      -5.246   3.765 -22.426  0.00  0.00    -0.000 C 
BRANCH  30  31
ATOM     31  C   UNL     1      -4.906   2.712 -21.743  0.00  0.00    -0.000 C 
BRANCH  31  33
ATOM     32  C   UNL     1      -3.324   3.848 -20.616  0.00  0.00    +0.004 C 
ATOM     33  C   UNL     1      -3.817   2.721 -21.034  0.00  0.00    -0.003 C 
ENDBRANCH  31  33
ENDBRANCH  30  31
ENDBRANCH  29  30
ENDBRANCH  28  29
ENDBRANCH  27  28
ENDBRANCH  26  27
ENDBRANCH  25  26
ENDBRANCH  24  25
ENDBRANCH  23  24
ENDBRANCH   1  23
TORSDOF 13
ENDMDL
MODEL 3
REMARK VINA RESULT:    -8.579      1.316      2.282
REMARK INTER + INTRA:         -16.800
REMARK INTER:                 -14.891
REMARK INTRA:                  -1.909
REMARK UNBOUND:                -1.701
REMARK  Name = CCCCCCCCCCCC1=C(O)C(=O)C=C(Nc2ccc(NC(C)=O)cc2)C1=O                   ZINC000100393407
REMARK  15 active torsions:
REMARK  status: ('A' for Active; 'I' for Inactive)
REMARK    1  A    between atoms: C_1  and  C_2
REMARK    2  A    between atoms: C_2  and  C_3
REMARK    3  A    between atoms: C_3  and  C_4
REMARK    4  A    between atoms: C_4  and  C_5
REMARK    5  A    between atoms: C_5  and  C_6
REMARK    6  A    between atoms: C_6  and  C_7
REMARK    7  A    between atoms: C_7  and  C_8
REMARK    8  A    between atoms: C_8  and  C_9
REMARK    9  A    between atoms: C_9  and  C_10
REMARK   10  A    between atoms: C_10  and  C_11
REMARK   11  A    between atoms: C_11  and  C_12
REMARK   12  A    between atoms: C_18  and  N_19
REMARK   13  A    between atoms: N_19  and  C_20
REMARK   14  A    between atoms: C_23  and  N_24
REMARK   15  A    between atoms: C_25  and  C_26
REMARK                            x       y       z     vdW  Elec       q    Type
REMARK                         _______ _______ _______ _____ _____    ______ ____
ROOT
ATOM      1  C   UNL     1       0.015   2.745 -22.556  0.00  0.00    -0.008 C 
ATOM      2  C   UNL     1       0.477   1.810 -21.779  0.00  0.00    +0.228 C 
ATOM      3  C   UNL     1       1.756   1.585 -21.722  0.00  0.00    +0.227 C 
ATOM      4  C   UNL     1       2.574   2.295 -22.441  0.00  0.00    +0.077 C 
ATOM      5  C   UNL     1       2.112   3.231 -23.218  0.00  0.00    +0.022 C 
ATOM      6  O   UNL     1       2.218   0.650 -20.946  0.00  0.00    -0.284 OA
ATOM      7  O   UNL     1      -0.341   1.100 -21.060  0.00  0.00    -0.284 OA
ATOM      8  C   UNL     1       0.833   3.455 -23.275  0.00  0.00    -0.112 C 
ATOM      9  O   UNL     1       0.371   4.390 -24.051  0.00  0.00    -0.828 OA
ENDROOT
BRANCH   5  10
ATOM     10  N   UNL     1       2.930   3.941 -23.937  0.00  0.00    -0.315 N 
ATOM     11  H   UNL     1       2.661   4.241 -24.835  0.00  0.00    +0.152 HD
BRANCH  10  12
ATOM     12  C   UNL     1       4.101   4.255 -23.469  0.00  0.00    +0.031 A 
ATOM     13  C   UNL     1       5.100   3.436 -23.615  0.00  0.00    +0.025 A 
ATOM     14  C   UNL     1       6.272   3.750 -23.147  0.00  0.00    +0.025 A 
ATOM     15  C   UNL     1       6.445   4.883 -22.534  0.00  0.00    +0.033 A 
ATOM     16  C   UNL     1       5.445   5.702 -22.388  0.00  0.00    +0.025 A 
ATOM     17  C   UNL     1       4.274   5.388 -22.856  0.00  0.00    +0.025 A 
BRANCH  15  18
ATOM     18  N   UNL     1       7.617   5.197 -22.066  0.00  0.00    -0.286 N 
ATOM     19  H   UNL     1       8.296   5.587 -22.663  0.00  0.00    +0.155 HD
ATOM     20  C   UNL     1       7.891   4.997 -20.812  0.00  0.00    +0.214 C 
ATOM     21  O   UNL     1       6.994   4.482 -20.024  0.00  0.00    -0.276 OA
ATOM     22  C   UNL     1       9.062   5.312 -20.345  0.00  0.00    +0.109 C 
ENDBRANCH  15  18
ENDBRANCH  10  12
ENDBRANCH   5  10
BRANCH   1  23
ATOM     23  C   UNL     1      -1.264   2.970 -22.613  0.00  0.00    +0.038 C 
BRANCH  23  24
ATOM     24  C   UNL     1      -1.802   3.859 -21.833  0.00  0.00    +0.005 C 
BRANCH  24  25
ATOM     25  C   UNL     1      -2.824   3.541 -21.093  0.00  0.00    +0.000 C 
BRANCH  25  26
ATOM     26  C   UNL     1      -3.572   2.530 -21.419  0.00  0.00    +0.000 C 
BRANCH  26  27
ATOM     27  C   UNL     1      -4.860   2.678 -21.515  0.00  0.00    +0.000 C 
BRANCH  27  28
ATOM     28  C   UNL     1      -5.351   3.645 -22.233  0.00  0.00    +0.000 C 
BRANCH  28  29
ATOM     29  C   UNL     1      -5.508   3.488 -23.514  0.00  0.00    -0.000 C 
BRANCH  29  30
ATOM     30  C   UNL     1      -5.112   4.415 -24.335  0.00  0.00    -0.000 C 
BRANCH  30  31
ATOM     31  C   UNL     1      -3.902   4.390 -24.810  0.00  0.00    -0.000 C 
BRANCH  31  33
ATOM     32  C   UNL     1      -2.346   3.436 -26.128  0.00  0.00    +0.004 C 
ATOM     33  C   UNL     1      -3.531   3.422 -25.595  0.00  0.00    -0.003 C 
ENDBRANCH  31  33
ENDBRANCH  30  31
ENDBRANCH  29  30
ENDBRANCH  28  29
ENDBRANCH  27  28
ENDBRANCH  26  27
ENDBRANCH  25  26
ENDBRANCH  24  25
ENDBRANCH  23  24
ENDBRANCH   1  23
TORSDOF 13
ENDMDL
MODEL 4
REMARK VINA RESULT:    -8.101      2.501      6.955
REMARK INTER + INTRA:         -15.958
REMARK INTER:                 -14.137
REMARK INTRA:                  -1.821
REMARK UNBOUND:                -1.701
REMARK  Name = CCCCCCCCCCCC1=C(O)C(=O)C=C(Nc2ccc(NC(C)=O)cc2)C1=O                   ZINC000100393407
REMARK  15 active torsions:
REMARK  status: ('A' for Active; 'I' for Inactive)
REMARK    1  A    between atoms: C_1  and  C_2
REMARK    2  A    between atoms: C_2  and  C_3
REMARK    3  A    between atoms: C_3  and  C_4
REMARK    4  A    between atoms: C_4  and  C_5
REMARK    5  A    between atoms: C_5  and  C_6
REMARK    6  A    between atoms: C_6  and  C_7
REMARK    7  A    between atoms: C_7  and  C_8
REMARK    8  A    between atoms: C_8  and  C_9
REMARK    9  A    between atoms: C_9  and  C_10
REMARK   10  A    between atoms: C_10  and  C_11
REMARK   11  A    between atoms: C_11  and  C_12
REMARK   12  A    between atoms: C_18  and  N_19
REMARK   13  A    between atoms: N_19  and  C_20
REMARK   14  A    between atoms: C_23  and  N_24
REMARK   15  A    between atoms: C_25  and  C_26
REMARK                            x       y       z     vdW  Elec       q    Type
REMARK                         _______ _______ _______ _____ _____    ______ ____
ROOT
ATOM      1  C   UNL     1       3.687   2.625 -23.467  0.00  0.00    -0.008 C 
ATOM      2  C   UNL     1       4.133   3.655 -22.811  0.00  0.00    +0.228 C 
ATOM      3  C   UNL     1       3.606   4.828 -23.007  0.00  0.00    +0.227 C 
ATOM      4  C   UNL     1       2.634   4.970 -23.859  0.00  0.00    +0.077 C 
ATOM      5  C   UNL     1       2.189   3.940 -24.515  0.00  0.00    +0.022 C 
ATOM      6  O   UNL     1       4.052   5.858 -22.351  0.00  0.00    -0.284 OA
ATOM      7  O   UNL     1       5.104   3.513 -21.959  0.00  0.00    -0.284 OA
ATOM      8  C   UNL     1       2.715   2.767 -24.319  0.00  0.00    -0.112 C 
ATOM      9  O   UNL     1       2.270   1.737 -24.974  0.00  0.00    -0.828 OA
ENDROOT
BRANCH   5  10
ATOM     10  N   UNL     1       1.217   4.082 -25.366  0.00  0.00    -0.315 N 
ATOM     11  H   UNL     1       1.415   4.247 -26.316  0.00  0.00    +0.152 HD
BRANCH  10  12
ATOM     12  C   UNL     1      -0.016   4.005 -24.963  0.00  0.00    +0.031 A 
ATOM     13  C   UNL     1      -0.839   3.179 -25.538  0.00  0.00    +0.025 A 
ATOM     14  C   UNL     1      -2.072   3.102 -25.135  0.00  0.00    +0.025 A 
ATOM     15  C   UNL     1      -2.484   3.852 -24.157  0.00  0.00    +0.033 A 
ATOM     16  C   UNL     1      -1.661   4.679 -23.581  0.00  0.00    +0.025 A 
ATOM     17  C   UNL     1      -0.428   4.756 -23.984  0.00  0.00    +0.025 A 
BRANCH  15  18
ATOM     18  N   UNL     1      -3.718   3.776 -23.754  0.00  0.00    -0.286 N 
ATOM     19  H   UNL     1      -3.926   3.361 -22.886  0.00  0.00    +0.155 HD
ATOM     20  C   UNL     1      -4.675   4.248 -24.496  0.00  0.00    +0.214 C 
ATOM     21  O   UNL     1      -4.399   4.796 -25.642  0.00  0.00    -0.276 OA
ATOM     22  C   UNL     1      -5.908   4.171 -24.092  0.00  0.00    +0.109 C 
ENDBRANCH  15  18
ENDBRANCH  10  12
ENDBRANCH   5  10
BRANCH   1  23
ATOM     23  C   UNL     1       4.213   1.453 -23.271  0.00  0.00    +0.038 C 
BRANCH  23  24
ATOM     24  C   UNL     1       4.185   0.918 -22.087  0.00  0.00    +0.005 C 
BRANCH  24  25
ATOM     25  C   UNL     1       3.050   0.557 -21.563  0.00  0.00    +0.000 C 
BRANCH  25  26
ATOM     26  C   UNL     1       2.463   1.326 -20.694  0.00  0.00    +0.000 C 
BRANCH  26  27
ATOM     27  C   UNL     1       1.168   1.432 -20.692  0.00  0.00    +0.000 C 
BRANCH  27  28
ATOM     28  C   UNL     1       0.532   1.662 -21.803  0.00  0.00    +0.000 C 
BRANCH  28  29
ATOM     29  C   UNL     1      -0.755   1.495 -21.862  0.00  0.00    -0.000 C 
BRANCH  29  30
ATOM     30  C   UNL     1      -1.542   2.254 -21.159  0.00  0.00    -0.000 C 
BRANCH  30  31
ATOM     31  C   UNL     1      -2.801   1.951 -21.039  0.00  0.00    -0.000 C 
BRANCH  31  33
ATOM     32  C   UNL     1      -3.214   3.968 -20.128  0.00  0.00    +0.004 C 
ATOM     33  C   UNL     1      -3.646   2.843 -20.614  0.00  0.00    -0.003 C 
ENDBRANCH  31  33
ENDBRANCH  30  31
ENDBRANCH  29  30
ENDBRANCH  28  29
ENDBRANCH  27  28
ENDBRANCH  26  27
ENDBRANCH  25  26
ENDBRANCH  24  25
ENDBRANCH  23  24
ENDBRANCH   1  23
TORSDOF 13
ENDMDL
MODEL 5
REMARK VINA RESULT:    -7.756      2.674      8.868
REMARK INTER + INTRA:         -15.351
REMARK INTER:                 -13.531
REMARK INTRA:                  -1.820
REMARK UNBOUND:                -1.701
REMARK  Name = CCCCCCCCCCCC1=C(O)C(=O)C=C(Nc2ccc(NC(C)=O)cc2)C1=O                   ZINC000100393407
REMARK  15 active torsions:
REMARK  status: ('A' for Active; 'I' for Inactive)
REMARK    1  A    between atoms: C_1  and  C_2
REMARK    2  A    between atoms: C_2  and  C_3
REMARK    3  A    between atoms: C_3  and  C_4
REMARK    4  A    between atoms: C_4  and  C_5
REMARK    5  A    between atoms: C_5  and  C_6
REMARK    6  A    between atoms: C_6  and  C_7
REMARK    7  A    between atoms: C_7  and  C_8
REMARK    8  A    between atoms: C_8  and  C_9
REMARK    9  A    between atoms: C_9  and  C_10
REMARK   10  A    between atoms: C_10  and  C_11
REMARK   11  A    between atoms: C_11  and  C_12
REMARK   12  A    between atoms: C_18  and  N_19
REMARK   13  A    between atoms: N_19  and  C_20
REMARK   14  A    between atoms: C_23  and  N_24
REMARK   15  A    between atoms: C_25  and  C_26
REMARK                            x       y       z     vdW  Elec       q    Type
REMARK                         _______ _______ _______ _____ _____    ______ ____
ROOT
ATOM      1  C   UNL     1       3.777   3.393 -23.197  0.00  0.00    -0.008 C 
ATOM      2  C   UNL     1       3.768   2.131 -23.508  0.00  0.00    +0.228 C 
ATOM      3  C   UNL     1       2.796   1.645 -24.223  0.00  0.00    +0.227 C 
ATOM      4  C   UNL     1       1.834   2.421 -24.626  0.00  0.00    +0.077 C 
ATOM      5  C   UNL     1       1.844   3.684 -24.315  0.00  0.00    +0.022 C 
ATOM      6  O   UNL     1       2.786   0.383 -24.534  0.00  0.00    -0.284 OA
ATOM      7  O   UNL     1       4.729   1.355 -23.105  0.00  0.00    -0.284 OA
ATOM      8  C   UNL     1       2.815   4.170 -23.601  0.00  0.00    -0.112 C 
ATOM      9  O   UNL     1       2.826   5.432 -23.289  0.00  0.00    -0.828 OA
ENDROOT
BRANCH   5  10
ATOM     10  N   UNL     1       0.882   4.460 -24.718  0.00  0.00    -0.315 N 
ATOM     11  H   UNL     1       1.069   5.182 -25.360  0.00  0.00    +0.152 HD
BRANCH  10  12
ATOM     12  C   UNL     1      -0.326   4.283 -24.273  0.00  0.00    +0.031 A 
ATOM     13  C   UNL     1      -1.221   3.716 -25.027  0.00  0.00    +0.025 A 
ATOM     14  C   UNL     1      -2.429   3.539 -24.582  0.00  0.00    +0.025 A 
ATOM     15  C   UNL     1      -2.743   3.927 -23.382  0.00  0.00    +0.033 A 
ATOM     16  C   UNL     1      -1.848   4.494 -22.627  0.00  0.00    +0.025 A 
ATOM     17  C   UNL     1      -0.640   4.671 -23.072  0.00  0.00    +0.025 A 
BRANCH  15  18
ATOM     18  N   UNL     1      -3.952   3.750 -22.936  0.00  0.00    -0.286 N 
ATOM     19  H   UNL     1      -4.694   4.282 -23.304  0.00  0.00    +0.155 HD
ATOM     20  C   UNL     1      -4.179   2.871 -22.006  0.00  0.00    +0.214 C 
ATOM     21  O   UNL     1      -3.198   2.169 -21.521  0.00  0.00    -0.276 OA
ATOM     22  C   UNL     1      -5.387   2.694 -21.561  0.00  0.00    +0.109 C 
ENDBRANCH  15  18
ENDBRANCH  10  12
ENDBRANCH   5  10
BRANCH   1  23
ATOM     23  C   UNL     1       4.748   3.879 -22.483  0.00  0.00    +0.038 C 
BRANCH  23  24
ATOM     24  C   UNL     1       5.858   4.240 -23.055  0.00  0.00    +0.005 C 
BRANCH  24  25
ATOM     25  C   UNL     1       6.986   4.123 -22.418  0.00  0.00    +0.000 C 
BRANCH  25  26
ATOM     26  C   UNL     1       6.994   4.049 -21.120  0.00  0.00    +0.000 C 
BRANCH  26  27
ATOM     27  C   UNL     1       7.695   4.895 -20.426  0.00  0.00    +0.000 C 
BRANCH  27  28
ATOM     28  C   UNL     1       7.147   5.991 -19.989  0.00  0.00    +0.000 C 
BRANCH  28  29
ATOM     29  C   UNL     1       7.542   7.141 -20.446  0.00  0.00    -0.000 C 
BRANCH  29  30
ATOM     30  C   UNL     1       6.672   7.995 -20.897  0.00  0.00    -0.000 C 
BRANCH  30  31
ATOM     31  C   UNL     1       5.674   7.584 -21.623  0.00  0.00    -0.000 C 
BRANCH  31  33
ATOM     32  C   UNL     1       4.177   8.600 -20.284  0.00  0.00    +0.004 C 
ATOM     33  C   UNL     1       4.486   8.075 -21.432  0.00  0.00    -0.003 C 
ENDBRANCH  31  33
ENDBRANCH  30  31
ENDBRANCH  29  30
ENDBRANCH  28  29
ENDBRANCH  27  28
ENDBRANCH  26  27
ENDBRANCH  25  26
ENDBRANCH  24  25
ENDBRANCH  23  24
ENDBRANCH   1  23
TORSDOF 13
ENDMDL
MODEL 6
REMARK VINA RESULT:    -7.649      2.568      7.955
REMARK INTER + INTRA:         -15.164
REMARK INTER:                 -13.836
REMARK INTRA:                  -1.327
REMARK UNBOUND:                -1.701
REMARK  Name = CCCCCCCCCCCC1=C(O)C(=O)C=C(Nc2ccc(NC(C)=O)cc2)C1=O                   ZINC000100393407
REMARK  15 active torsions:
REMARK  status: ('A' for Active; 'I' for Inactive)
REMARK    1  A    between atoms: C_1  and  C_2
REMARK    2  A    between atoms: C_2  and  C_3
REMARK    3  A    between atoms: C_3  and  C_4
REMARK    4  A    between atoms: C_4  and  C_5
REMARK    5  A    between atoms: C_5  and  C_6
REMARK    6  A    between atoms: C_6  and  C_7
REMARK    7  A    between atoms: C_7  and  C_8
REMARK    8  A    between atoms: C_8  and  C_9
REMARK    9  A    between atoms: C_9  and  C_10
REMARK   10  A    between atoms: C_10  and  C_11
REMARK   11  A    between atoms: C_11  and  C_12
REMARK   12  A    between atoms: C_18  and  N_19
REMARK   13  A    between atoms: N_19  and  C_20
REMARK   14  A    between atoms: C_23  and  N_24
REMARK   15  A    between atoms: C_25  and  C_26
REMARK                            x       y       z     vdW  Elec       q    Type
REMARK                         _______ _______ _______ _____ _____    ______ ____
ROOT
ATOM      1  C   UNL     1       3.233   3.639 -23.638  0.00  0.00    -0.008 C 
ATOM      2  C   UNL     1       3.285   2.555 -24.353  0.00  0.00    +0.228 C 
ATOM      3  C   UNL     1       2.261   2.199 -25.070  0.00  0.00    +0.227 C 
ATOM      4  C   UNL     1       1.184   2.928 -25.072  0.00  0.00    +0.077 C 
ATOM      5  C   UNL     1       1.132   4.013 -24.357  0.00  0.00    +0.022 C 
ATOM      6  O   UNL     1       2.313   1.115 -25.785  0.00  0.00    -0.284 OA
ATOM      7  O   UNL     1       4.361   1.826 -24.351  0.00  0.00    -0.284 OA
ATOM      8  C   UNL     1       2.156   4.368 -23.640  0.00  0.00    -0.112 C 
ATOM      9  O   UNL     1       2.105   5.452 -22.925  0.00  0.00    -0.828 OA
ENDROOT
BRANCH   5  10
ATOM     10  N   UNL     1       0.056   4.742 -24.359  0.00  0.00    -0.315 N 
ATOM     11  H   UNL     1       0.053   5.612 -24.818  0.00  0.00    +0.152 HD
BRANCH  10  12
ATOM     12  C   UNL     1      -1.015   4.320 -23.756  0.00  0.00    +0.031 A 
ATOM     13  C   UNL     1      -1.238   4.650 -22.519  0.00  0.00    +0.025 A 
ATOM     14  C   UNL     1      -2.310   4.229 -21.916  0.00  0.00    +0.025 A 
ATOM     15  C   UNL     1      -3.159   3.476 -22.549  0.00  0.00    +0.033 A 
ATOM     16  C   UNL     1      -2.936   3.145 -23.788  0.00  0.00    +0.025 A 
ATOM     17  C   UNL     1      -1.865   3.567 -24.391  0.00  0.00    +0.025 A 
BRANCH  15  18
ATOM     18  N   UNL     1      -4.231   3.054 -21.946  0.00  0.00    -0.286 N 
ATOM     19  H   UNL     1      -4.154   2.532 -21.116  0.00  0.00    +0.155 HD
ATOM     20  C   UNL     1      -5.403   3.322 -22.441  0.00  0.00    +0.214 C 
ATOM     21  O   UNL     1      -5.504   4.012 -23.538  0.00  0.00    -0.276 OA
ATOM     22  C   UNL     1      -6.474   2.900 -21.838  0.00  0.00    +0.109 C 
ENDBRANCH  15  18
ENDBRANCH  10  12
ENDBRANCH   5  10
BRANCH   1  23
ATOM     23  C   UNL     1       4.257   3.995 -22.921  0.00  0.00    +0.038 C 
BRANCH  23  24
ATOM     24  C   UNL     1       5.353   3.298 -22.963  0.00  0.00    +0.005 C 
BRANCH  24  25
ATOM     25  C   UNL     1       6.011   3.053 -21.868  0.00  0.00    +0.000 C 
BRANCH  25  26
ATOM     26  C   UNL     1       5.491   2.287 -20.956  0.00  0.00    +0.000 C 
BRANCH  26  27
ATOM     27  C   UNL     1       5.373   1.010 -21.170  0.00  0.00    +0.000 C 
BRANCH  27  28
ATOM     28  C   UNL     1       4.297   0.384 -20.792  0.00  0.00    +0.000 C 
BRANCH  28  29
ATOM     29  C   UNL     1       3.138   0.745 -21.256  0.00  0.00    -0.000 C 
BRANCH  29  30
ATOM     30  C   UNL     1       2.356   1.495 -20.538  0.00  0.00    -0.000 C 
BRANCH  30  31
ATOM     31  C   UNL     1       1.240   1.938 -21.038  0.00  0.00    -0.000 C 
BRANCH  31  33
ATOM     32  C   UNL     1      -0.703   1.043 -21.739  0.00  0.00    +0.004 C 
ATOM     33  C   UNL     1       0.577   1.214 -21.890  0.00  0.00    -0.003 C 
ENDBRANCH  31  33
ENDBRANCH  30  31
ENDBRANCH  29  30
ENDBRANCH  28  29
ENDBRANCH  27  28
ENDBRANCH  26  27
ENDBRANCH  25  26
ENDBRANCH  24  25
ENDBRANCH  23  24
ENDBRANCH   1  23
TORSDOF 13
ENDMDL
MODEL 7
REMARK VINA RESULT:    -7.544      2.060      4.244
REMARK INTER + INTRA:         -14.979
REMARK INTER:                 -14.185
REMARK INTRA:                  -0.793
REMARK UNBOUND:                -1.701
REMARK  Name = CCCCCCCCCCCC1=C(O)C(=O)C=C(Nc2ccc(NC(C)=O)cc2)C1=O                   ZINC000100393407
REMARK  15 active torsions:
REMARK  status: ('A' for Active; 'I' for Inactive)
REMARK    1  A    between atoms: C_1  and  C_2
REMARK    2  A    between atoms: C_2  and  C_3
REMARK    3  A    between atoms: C_3  and  C_4
REMARK    4  A    between atoms: C_4  and  C_5
REMARK    5  A    between atoms: C_5  and  C_6
REMARK    6  A    between atoms: C_6  and  C_7
REMARK    7  A    between atoms: C_7  and  C_8
REMARK    8  A    between atoms: C_8  and  C_9
REMARK    9  A    between atoms: C_9  and  C_10
REMARK   10  A    between atoms: C_10  and  C_11
REMARK   11  A    between atoms: C_11  and  C_12
REMARK   12  A    between atoms: C_18  and  N_19
REMARK   13  A    between atoms: N_19  and  C_20
REMARK   14  A    between atoms: C_23  and  N_24
REMARK   15  A    between atoms: C_25  and  C_26
REMARK                            x       y       z     vdW  Elec       q    Type
REMARK                         _______ _______ _______ _____ _____    ______ ____
ROOT
ATOM      1  C   UNL     1       2.547   1.767 -23.432  0.00  0.00    -0.008 C 
ATOM      2  C   UNL     1       1.900   1.490 -22.339  0.00  0.00    +0.228 C 
ATOM      3  C   UNL     1       2.524   1.489 -21.198  0.00  0.00    +0.227 C 
ATOM      4  C   UNL     1       3.793   1.765 -21.150  0.00  0.00    +0.077 C 
ATOM      5  C   UNL     1       4.440   2.042 -22.244  0.00  0.00    +0.022 C 
ATOM      6  O   UNL     1       1.878   1.211 -20.105  0.00  0.00    -0.284 OA
ATOM      7  O   UNL     1       0.631   1.214 -22.387  0.00  0.00    -0.284 OA
ATOM      8  C   UNL     1       3.817   2.044 -23.384  0.00  0.00    -0.112 C 
ATOM      9  O   UNL     1       4.463   2.321 -24.478  0.00  0.00    -0.828 OA
ENDROOT
BRANCH   5  10
ATOM     10  N   UNL     1       5.709   2.319 -22.196  0.00  0.00    -0.315 N 
ATOM     11  H   UNL     1       6.373   1.603 -22.319  0.00  0.00    +0.152 HD
BRANCH  10  12
ATOM     12  C   UNL     1       6.100   3.540 -21.987  0.00  0.00    +0.031 A 
ATOM     13  C   UNL     1       6.780   3.832 -20.918  0.00  0.00    +0.025 A 
ATOM     14  C   UNL     1       7.172   5.053 -20.708  0.00  0.00    +0.025 A 
ATOM     15  C   UNL     1       6.884   5.984 -21.568  0.00  0.00    +0.033 A 
ATOM     16  C   UNL     1       6.204   5.694 -22.638  0.00  0.00    +0.025 A 
ATOM     17  C   UNL     1       5.812   4.472 -22.847  0.00  0.00    +0.025 A 
BRANCH  15  18
ATOM     18  N   UNL     1       7.276   7.207 -21.359  0.00  0.00    -0.286 N 
ATOM     19  H   UNL     1       8.202   7.467 -21.562  0.00  0.00    +0.155 HD
ATOM     20  C   UNL     1       6.443   8.083 -20.881  0.00  0.00    +0.214 C 
ATOM     21  O   UNL     1       5.219   7.738 -20.612  0.00  0.00    -0.276 OA
ATOM     22  C   UNL     1       6.835   9.305 -20.672  0.00  0.00    +0.109 C 
ENDBRANCH  15  18
ENDBRANCH  10  12
ENDBRANCH   5  10
BRANCH   1  23
ATOM     23  C   UNL     1       1.924   1.769 -24.573  0.00  0.00    +0.038 C 
BRANCH  23  24
ATOM     24  C   UNL     1       1.661   2.894 -25.168  0.00  0.00    +0.005 C 
BRANCH  24  25
ATOM     25  C   UNL     1       0.517   3.481 -24.972  0.00  0.00    +0.000 C 
BRANCH  25  26
ATOM     26  C   UNL     1       0.452   4.546 -24.230  0.00  0.00    +0.000 C 
BRANCH  26  27
ATOM     27  C   UNL     1      -0.689   4.927 -23.739  0.00  0.00    +0.000 C 
BRANCH  27  28
ATOM     28  C   UNL     1      -1.024   4.583 -22.530  0.00  0.00    +0.000 C 
BRANCH  28  29
ATOM     29  C   UNL     1      -2.082   3.854 -22.332  0.00  0.00    -0.000 C 
BRANCH  29  30
ATOM     30  C   UNL     1      -2.511   3.649 -21.122  0.00  0.00    -0.000 C 
BRANCH  30  31
ATOM     31  C   UNL     1      -3.786   3.528 -20.897  0.00  0.00    -0.000 C 
BRANCH  31  33
ATOM     32  C   UNL     1      -5.721   3.156 -21.986  0.00  0.00    +0.004 C 
ATOM     33  C   UNL     1      -4.516   2.783 -21.672  0.00  0.00    -0.003 C 
ENDBRANCH  31  33
ENDBRANCH  30  31
ENDBRANCH  29  30
ENDBRANCH  28  29
ENDBRANCH  27  28
ENDBRANCH  26  27
ENDBRANCH  25  26
ENDBRANCH  24  25
ENDBRANCH  23  24
ENDBRANCH   1  23
TORSDOF 13
ENDMDL
MODEL 8
REMARK VINA RESULT:    -7.016      2.977      8.849
REMARK INTER + INTRA:         -14.049
REMARK INTER:                 -13.043
REMARK INTRA:                  -1.007
REMARK UNBOUND:                -1.701
REMARK  Name = CCCCCCCCCCCC1=C(O)C(=O)C=C(Nc2ccc(NC(C)=O)cc2)C1=O                   ZINC000100393407
REMARK  15 active torsions:
REMARK  status: ('A' for Active; 'I' for Inactive)
REMARK    1  A    between atoms: C_1  and  C_2
REMARK    2  A    between atoms: C_2  and  C_3
REMARK    3  A    between atoms: C_3  and  C_4
REMARK    4  A    between atoms: C_4  and  C_5
REMARK    5  A    between atoms: C_5  and  C_6
REMARK    6  A    between atoms: C_6  and  C_7
REMARK    7  A    between atoms: C_7  and  C_8
REMARK    8  A    between atoms: C_8  and  C_9
REMARK    9  A    between atoms: C_9  and  C_10
REMARK   10  A    between atoms: C_10  and  C_11
REMARK   11  A    between atoms: C_11  and  C_12
REMARK   12  A    between atoms: C_18  and  N_19
REMARK   13  A    between atoms: N_19  and  C_20
REMARK   14  A    between atoms: C_23  and  N_24
REMARK   15  A    between atoms: C_25  and  C_26
REMARK                            x       y       z     vdW  Elec       q    Type
REMARK                         _______ _______ _______ _____ _____    ______ ____
ROOT
ATOM      1  C   UNL     1       4.677   2.788 -22.637  0.00  0.00    -0.008 C 
ATOM      2  C   UNL     1       4.298   1.546 -22.569  0.00  0.00    +0.228 C 
ATOM      3  C   UNL     1       3.050   1.235 -22.766  0.00  0.00    +0.227 C 
ATOM      4  C   UNL     1       2.183   2.166 -23.031  0.00  0.00    +0.077 C 
ATOM      5  C   UNL     1       2.561   3.408 -23.099  0.00  0.00    +0.022 C 
ATOM      6  O   UNL     1       2.672  -0.006 -22.698  0.00  0.00    -0.284 OA
ATOM      7  O   UNL     1       5.166   0.615 -22.304  0.00  0.00    -0.284 OA
ATOM      8  C   UNL     1       3.808   3.719 -22.902  0.00  0.00    -0.112 C 
ATOM      9  O   UNL     1       4.187   4.960 -22.970  0.00  0.00    -0.828 OA
ENDROOT
BRANCH   5  10
ATOM     10  N   UNL     1       1.694   4.339 -23.363  0.00  0.00    -0.315 N 
ATOM     11  H   UNL     1       1.959   5.285 -23.322  0.00  0.00    +0.152 HD
BRANCH  10  12
ATOM     12  C   UNL     1       0.475   4.019 -23.682  0.00  0.00    +0.031 A 
ATOM     13  C   UNL     1       0.167   3.783 -24.923  0.00  0.00    +0.025 A 
ATOM     14  C   UNL     1      -1.051   3.463 -25.241  0.00  0.00    +0.025 A 
ATOM     15  C   UNL     1      -1.964   3.379 -24.320  0.00  0.00    +0.033 A 
ATOM     16  C   UNL     1      -1.657   3.615 -23.078  0.00  0.00    +0.025 A 
ATOM     17  C   UNL     1      -0.438   3.935 -22.759  0.00  0.00    +0.025 A 
BRANCH  15  18
ATOM     18  N   UNL     1      -3.183   3.059 -24.638  0.00  0.00    -0.286 N 
ATOM     19  H   UNL     1      -3.471   2.119 -24.599  0.00  0.00    +0.155 HD
ATOM     20  C   UNL     1      -4.022   3.981 -25.009  0.00  0.00    +0.214 C 
ATOM     21  O   UNL     1      -3.641   5.223 -25.060  0.00  0.00    -0.276 OA
ATOM     22  C   UNL     1      -5.240   3.661 -25.327  0.00  0.00    +0.109 C 
ENDBRANCH  15  18
ENDBRANCH  10  12
ENDBRANCH   5  10
BRANCH   1  23
ATOM     23  C   UNL     1       5.923   3.099 -22.440  0.00  0.00    +0.038 C 
BRANCH  23  24
ATOM     24  C   UNL     1       6.318   3.487 -21.264  0.00  0.00    +0.005 C 
BRANCH  24  25
ATOM     25  C   UNL     1       7.298   4.336 -21.155  0.00  0.00    +0.000 C 
BRANCH  25  26
ATOM     26  C   UNL     1       7.290   5.217 -20.200  0.00  0.00    +0.000 C 
BRANCH  26  27
ATOM     27  C   UNL     1       6.756   6.385 -20.398  0.00  0.00    +0.000 C 
BRANCH  27  28
ATOM     28  C   UNL     1       6.865   6.962 -21.559  0.00  0.00    +0.000 C 
BRANCH  28  29
ATOM     29  C   UNL     1       6.183   8.038 -21.816  0.00  0.00    -0.000 C 
BRANCH  29  30
ATOM     30  C   UNL     1       4.888   8.028 -21.707  0.00  0.00    -0.000 C 
BRANCH  30  31
ATOM     31  C   UNL     1       4.225   9.147 -21.716  0.00  0.00    -0.000 C 
BRANCH  31  33
ATOM     32  C   UNL     1       4.639  11.092 -20.660  0.00  0.00    +0.004 C 
ATOM     33  C   UNL     1       4.171   9.879 -20.644  0.00  0.00    -0.003 C 
ENDBRANCH  31  33
ENDBRANCH  30  31
ENDBRANCH  29  30
ENDBRANCH  28  29
ENDBRANCH  27  28
ENDBRANCH  26  27
ENDBRANCH  25  26
ENDBRANCH  24  25
ENDBRANCH  23  24
ENDBRANCH   1  23
TORSDOF 13
ENDMDL
MODEL 9
REMARK VINA RESULT:    -6.898      2.095      3.950
REMARK INTER + INTRA:         -13.842
REMARK INTER:                 -12.141
REMARK INTRA:                  -1.701
REMARK UNBOUND:                -1.701
REMARK  Name = CCCCCCCCCCCC1=C(O)C(=O)C=C(Nc2ccc(NC(C)=O)cc2)C1=O                   ZINC000100393407
REMARK  15 active torsions:
REMARK  status: ('A' for Active; 'I' for Inactive)
REMARK    1  A    between atoms: C_1  and  C_2
REMARK    2  A    between atoms: C_2  and  C_3
REMARK    3  A    between atoms: C_3  and  C_4
REMARK    4  A    between atoms: C_4  and  C_5
REMARK    5  A    between atoms: C_5  and  C_6
REMARK    6  A    between atoms: C_6  and  C_7
REMARK    7  A    between atoms: C_7  and  C_8
REMARK    8  A    between atoms: C_8  and  C_9
REMARK    9  A    between atoms: C_9  and  C_10
REMARK   10  A    between atoms: C_10  and  C_11
REMARK   11  A    between atoms: C_11  and  C_12
REMARK   12  A    between atoms: C_18  and  N_19
REMARK   13  A    between atoms: N_19  and  C_20
REMARK   14  A    between atoms: C_23  and  N_24
REMARK   15  A    between atoms: C_25  and  C_26
REMARK                            x       y       z     vdW  Elec       q    Type
REMARK                         _______ _______ _______ _____ _____    ______ ____
ROOT
ATOM      1  C   UNL     1      -1.160   4.348 -24.176  0.00  0.00    -0.008 C 
ATOM      2  C   UNL     1      -0.613   3.722 -25.175  0.00  0.00    +0.228 C 
ATOM      3  C   UNL     1       0.677   3.757 -25.336  0.00  0.00    +0.227 C 
ATOM      4  C   UNL     1       1.419   4.418 -24.498  0.00  0.00    +0.077 C 
ATOM      5  C   UNL     1       0.872   5.044 -23.499  0.00  0.00    +0.022 C 
ATOM      6  O   UNL     1       1.224   3.131 -26.335  0.00  0.00    -0.284 OA
ATOM      7  O   UNL     1      -1.355   3.061 -26.013  0.00  0.00    -0.284 OA
ATOM      8  C   UNL     1      -0.417   5.010 -23.337  0.00  0.00    -0.112 C 
ATOM      9  O   UNL     1      -0.965   5.636 -22.338  0.00  0.00    -0.828 OA
ENDROOT
BRANCH   5  10
ATOM     10  N   UNL     1       1.614   5.705 -22.661  0.00  0.00    -0.315 N 
ATOM     11  H   UNL     1       1.198   6.306 -22.003  0.00  0.00    +0.152 HD
BRANCH  10  12
ATOM     12  C   UNL     1       2.907   5.572 -22.692  0.00  0.00    +0.031 A 
ATOM     13  C   UNL     1       3.435   4.409 -22.934  0.00  0.00    +0.025 A 
ATOM     14  C   UNL     1       4.728   4.275 -22.966  0.00  0.00    +0.025 A 
ATOM     15  C   UNL     1       5.493   5.304 -22.756  0.00  0.00    +0.033 A 
ATOM     16  C   UNL     1       4.965   6.468 -22.514  0.00  0.00    +0.025 A 
ATOM     17  C   UNL     1       3.672   6.602 -22.482  0.00  0.00    +0.025 A 
BRANCH  15  18
ATOM     18  N   UNL     1       6.786   5.171 -22.787  0.00  0.00    -0.286 N 
ATOM     19  H   UNL     1       7.262   5.203 -23.648  0.00  0.00    +0.155 HD
ATOM     20  C   UNL     1       7.449   4.996 -21.683  0.00  0.00    +0.214 C 
ATOM     21  O   UNL     1       6.819   4.954 -20.547  0.00  0.00    -0.276 OA
ATOM     22  C   UNL     1       8.741   4.863 -21.715  0.00  0.00    +0.109 C 
ENDBRANCH  15  18
ENDBRANCH  10  12
ENDBRANCH   5  10
BRANCH   1  23
ATOM     23  C   UNL     1      -2.449   4.314 -24.014  0.00  0.00    +0.038 C 
BRANCH  23  24
ATOM     24  C   UNL     1      -3.019   3.235 -23.566  0.00  0.00    +0.005 C 
BRANCH  24  25
ATOM     25  C   UNL     1      -3.292   3.123 -22.299  0.00  0.00    +0.000 C 
BRANCH  25  26
ATOM     26  C   UNL     1      -2.750   2.170 -21.600  0.00  0.00    +0.000 C 
BRANCH  26  27
ATOM     27  C   UNL     1      -1.532   2.296 -21.164  0.00  0.00    +0.000 C 
BRANCH  27  28
ATOM     28  C   UNL     1      -0.636   1.404 -21.471  0.00  0.00    +0.000 C 
BRANCH  28  29
ATOM     29  C   UNL     1       0.462   1.764 -22.065  0.00  0.00    -0.000 C 
BRANCH  29  30
ATOM     30  C   UNL     1       1.613   1.443 -21.552  0.00  0.00    -0.000 C 
BRANCH  30  31
ATOM     31  C   UNL     1       2.495   0.818 -22.275  0.00  0.00    -0.000 C 
BRANCH  31  33
ATOM     32  C   UNL     1       3.509   1.036 -24.273  0.00  0.00    +0.004 C 
ATOM     33  C   UNL     1       2.428   0.869 -23.572  0.00  0.00    -0.003 C 
ENDBRANCH  31  33
ENDBRANCH  30  31
ENDBRANCH  29  30
ENDBRANCH  28  29
ENDBRANCH  27  28
ENDBRANCH  26  27
ENDBRANCH  25  26
ENDBRANCH  24  25
ENDBRANCH  23  24
ENDBRANCH   1  23
TORSDOF 13
ENDMDL
