MODEL 1
REMARK VINA RESULT:    -9.773      0.000      0.000
REMARK INTER + INTRA:          -7.899
REMARK INTER:                 -11.864
REMARK INTRA:                   3.965
REMARK UNBOUND:                 4.160
REMARK  Name = COC1=C2Oc3c(OC)ccc4c3[C@@]23CCN(C)[C@@H](C4)C3=C[C@@H]1C(C)(C)O      ZINC000100393763
REMARK  9 active torsions:
REMARK  status: ('A' for Active; 'I' for Inactive)
REMARK    1  A    between atoms: C_1  and  O_2
REMARK    2  A    between atoms: O_2  and  C_3
REMARK    3  A    between atoms: C_7  and  O_8
REMARK    4  A    between atoms: O_8  and  C_9
REMARK    5  A    between atoms: N_17  and  C_18
REMARK    6  A    between atoms: C_23  and  C_24
REMARK    7  A    between atoms: C_24  and  C_25
REMARK    8  A    between atoms: C_24  and  C_26
REMARK    9  A    between atoms: C_24  and  O_27
REMARK                            x       y       z     vdW  Elec       q    Type
REMARK                         _______ _______ _______ _____ _____    ______ ____
ROOT
ATOM      1  C   UNL     1       0.602   2.856 -24.491  0.00  0.00    +0.146 C 
ATOM      2  C   UNL     1      -0.626   3.066 -24.327  0.00  0.00    +0.159 C 
ATOM      3  O   UNL     1      -1.929   3.545 -24.938  0.00  0.00    -0.452 OA
ATOM      4  C   UNL     1      -3.099   3.485 -23.991  0.00  0.00    +0.174 A 
ATOM      5  C   UNL     1      -4.343   3.697 -23.825  0.00  0.00    +0.162 A 
ATOM      6  C   UNL     1      -4.877   3.442 -22.699  0.00  0.00    +0.050 A 
ATOM      7  C   UNL     1      -4.186   2.985 -21.754  0.00  0.00    +0.008 A 
ATOM      8  C   UNL     1      -2.957   2.777 -21.924  0.00  0.00    -0.034 A 
ATOM      9  C   UNL     1      -2.247   2.310 -20.963  0.00  0.00    +0.094 C 
ATOM     10  C   UNL     1      -1.018   2.101 -21.131  0.00  0.00    +0.096 C 
ATOM     11  C   UNL     1      -0.481   2.355 -22.254  0.00  0.00    -0.007 C 
ATOM     12  C   UNL     1       0.760   2.144 -22.423  0.00  0.00    -0.007 C 
ATOM     13  N   UNL     1       0.385   1.829 -21.216  0.00  0.00    +0.239 N 
ATOM     14  H   UNL     1       0.919   1.457 -20.431  0.00  0.00    +0.204 HD
ATOM     15  C   UNL     1       1.026   1.371 -20.238  0.00  0.00    +0.191 C 
ATOM     16  C   UNL     1       1.016   2.101 -22.457  0.00  0.00    +0.133 C 
ATOM     17  C   UNL     1       0.210   2.617 -23.504  0.00  0.00    +0.075 C 
ATOM     18  C   UNL     1      -2.403   3.022 -23.034  0.00  0.00    +0.020 A 
ATOM     19  C   UNL     1      -1.176   2.813 -23.197  0.00  0.00    +0.091 C 
ATOM     20  C   UNL     1       1.297   2.393 -23.533  0.00  0.00    +0.112 C 
ENDROOT
BRANCH  20  21
ATOM     21  C   UNL     1       2.528   2.183 -23.697  0.00  0.00    +0.074 C 
ATOM     22  C   UNL     1       3.368   3.044 -23.331  0.00  0.00    +0.042 C 
ATOM     23  C   UNL     1       3.464   1.443 -24.097  0.00  0.00    +0.042 C 
BRANCH  21  24
ATOM     24  O   UNL     1       2.269   1.067 -24.214  0.00  0.00    -0.388 OA
ATOM     25  H   UNL     1       2.587   1.053 -25.130  0.00  0.00    +0.210 HD
ENDBRANCH  21  24
ENDBRANCH  20  21
BRANCH   1  27
ATOM     26  C   UNL     1       1.165   4.284 -26.039  0.00  0.00    +0.276 C 
ATOM     27  O   UNL     1       1.142   3.105 -25.600  0.00  0.00    -0.495 OA
ENDBRANCH   1  27
BRANCH   5  28
ATOM     28  O   UNL     1      -5.038   4.155 -24.767  0.00  0.00    -0.491 OA
ATOM     29  C   UNL     1      -5.208   3.477 -25.811  0.00  0.00    +0.277 C 
ENDBRANCH   5  28
TORSDOF 4
ENDMDL
MODEL 2
REMARK VINA RESULT:    -9.677      1.644      3.096
REMARK INTER + INTRA:          -7.780
REMARK INTER:                 -11.797
REMARK INTRA:                   4.017
REMARK UNBOUND:                 4.160
REMARK  Name = COC1=C2Oc3c(OC)ccc4c3[C@@]23CCN(C)[C@@H](C4)C3=C[C@@H]1C(C)(C)O      ZINC000100393763
REMARK  9 active torsions:
REMARK  status: ('A' for Active; 'I' for Inactive)
REMARK    1  A    between atoms: C_1  and  O_2
REMARK    2  A    between atoms: O_2  and  C_3
REMARK    3  A    between atoms: C_7  and  O_8
REMARK    4  A    between atoms: O_8  and  C_9
REMARK    5  A    between atoms: N_17  and  C_18
REMARK    6  A    between atoms: C_23  and  C_24
REMARK    7  A    between atoms: C_24  and  C_25
REMARK    8  A    between atoms: C_24  and  C_26
REMARK    9  A    between atoms: C_24  and  O_27
REMARK                            x       y       z     vdW  Elec       q    Type
REMARK                         _______ _______ _______ _____ _____    ______ ____
ROOT
ATOM      1  C   UNL     1       0.338   1.782 -22.124  0.00  0.00    +0.146 C 
ATOM      2  C   UNL     1      -0.884   2.073 -22.164  0.00  0.00    +0.159 C 
ATOM      3  O   UNL     1      -2.241   1.962 -21.499  0.00  0.00    -0.452 OA
ATOM      4  C   UNL     1      -3.342   2.663 -22.250  0.00  0.00    +0.174 A 
ATOM      5  C   UNL     1      -4.580   2.959 -22.291  0.00  0.00    +0.162 A 
ATOM      6  C   UNL     1      -5.027   3.652 -23.260  0.00  0.00    +0.050 A 
ATOM      7  C   UNL     1      -4.258   4.044 -24.172  0.00  0.00    +0.008 A 
ATOM      8  C   UNL     1      -3.035   3.749 -24.127  0.00  0.00    -0.034 A 
ATOM      9  C   UNL     1      -2.245   4.147 -25.057  0.00  0.00    +0.094 C 
ATOM     10  C   UNL     1      -1.023   3.853 -25.013  0.00  0.00    +0.096 C 
ATOM     11  C   UNL     1      -0.573   3.161 -24.047  0.00  0.00    -0.007 C 
ATOM     12  C   UNL     1       0.662   2.865 -24.003  0.00  0.00    -0.007 C 
ATOM     13  N   UNL     1       0.381   3.574 -25.059  0.00  0.00    +0.239 N 
ATOM     14  H   UNL     1       0.980   3.907 -25.814  0.00  0.00    +0.204 HD
ATOM     15  C   UNL     1       1.103   3.993 -25.997  0.00  0.00    +0.191 C 
ATOM     16  C   UNL     1       0.916   2.804 -23.995  0.00  0.00    +0.133 C 
ATOM     17  C   UNL     1       0.023   2.376 -22.980  0.00  0.00    +0.075 C 
ATOM     18  C   UNL     1      -2.567   3.061 -23.174  0.00  0.00    +0.020 A 
ATOM     19  C   UNL     1      -1.346   2.771 -23.135  0.00  0.00    +0.091 C 
ATOM     20  C   UNL     1       1.114   2.180 -23.049  0.00  0.00    +0.112 C 
ENDROOT
BRANCH  20  21
ATOM     21  C   UNL     1       2.338   1.889 -23.010  0.00  0.00    +0.074 C 
ATOM     22  C   UNL     1       3.167   2.714 -22.549  0.00  0.00    +0.042 C 
ATOM     23  C   UNL     1       3.272   1.075 -23.230  0.00  0.00    +0.042 C 
BRANCH  21  24
ATOM     24  O   UNL     1       2.087   0.766 -23.519  0.00  0.00    -0.388 OA
ATOM     25  H   UNL     1       2.847   0.473 -24.046  0.00  0.00    +0.210 HD
ENDBRANCH  21  24
ENDBRANCH  20  21
BRANCH   1  27
ATOM     26  C   UNL     1       0.830   1.582 -20.010  0.00  0.00    +0.276 C 
ATOM     27  O   UNL     1       0.792   1.097 -21.171  0.00  0.00    -0.495 OA
ENDBRANCH   1  27
BRANCH   5  28
ATOM     28  O   UNL     1      -5.354   2.569 -21.381  0.00  0.00    -0.491 OA
ATOM     29  C   UNL     1      -6.597   2.582 -21.563  0.00  0.00    +0.277 C 
ENDBRANCH   5  28
TORSDOF 4
ENDMDL
MODEL 3
REMARK VINA RESULT:    -8.852      1.331      5.388
REMARK INTER + INTRA:          -6.762
REMARK INTER:                 -10.823
REMARK INTRA:                   4.061
REMARK UNBOUND:                 4.160
REMARK  Name = COC1=C2Oc3c(OC)ccc4c3[C@@]23CCN(C)[C@@H](C4)C3=C[C@@H]1C(C)(C)O      ZINC000100393763
REMARK  9 active torsions:
REMARK  status: ('A' for Active; 'I' for Inactive)
REMARK    1  A    between atoms: C_1  and  O_2
REMARK    2  A    between atoms: O_2  and  C_3
REMARK    3  A    between atoms: C_7  and  O_8
REMARK    4  A    between atoms: O_8  and  C_9
REMARK    5  A    between atoms: N_17  and  C_18
REMARK    6  A    between atoms: C_23  and  C_24
REMARK    7  A    between atoms: C_24  and  C_25
REMARK    8  A    between atoms: C_24  and  C_26
REMARK    9  A    between atoms: C_24  and  O_27
REMARK                            x       y       z     vdW  Elec       q    Type
REMARK                         _______ _______ _______ _____ _____    ______ ____
ROOT
ATOM      1  C   UNL     1      -2.460   3.666 -25.050  0.00  0.00    +0.146 C 
ATOM      2  C   UNL     1      -1.329   3.257 -24.685  0.00  0.00    +0.159 C 
ATOM      3  O   UNL     1       0.127   3.046 -25.048  0.00  0.00    -0.452 OA
ATOM      4  C   UNL     1       0.944   2.431 -23.942  0.00  0.00    +0.174 A 
ATOM      5  C   UNL     1       2.089   2.017 -23.571  0.00  0.00    +0.162 A 
ATOM      6  C   UNL     1       2.234   1.538 -22.401  0.00  0.00    +0.050 A 
ATOM      7  C   UNL     1       1.257   1.473 -21.614  0.00  0.00    +0.008 A 
ATOM      8  C   UNL     1       0.127   1.884 -21.986  0.00  0.00    -0.034 A 
ATOM      9  C   UNL     1      -0.874   1.820 -21.185  0.00  0.00    +0.094 C 
ATOM     10  C   UNL     1      -2.003   2.230 -21.555  0.00  0.00    +0.096 C 
ATOM     11  C   UNL     1      -2.151   2.709 -22.723  0.00  0.00    -0.007 C 
ATOM     12  C   UNL     1      -3.293   3.123 -23.096  0.00  0.00    -0.007 C 
ATOM     13  N   UNL     1      -3.329   2.669 -21.876  0.00  0.00    +0.239 N 
ATOM     14  H   UNL     1      -4.102   2.602 -21.214  0.00  0.00    +0.204 HD
ATOM     15  C   UNL     1      -4.269   2.579 -21.048  0.00  0.00    +0.191 C 
ATOM     16  C   UNL     1      -3.528   3.208 -23.172  0.00  0.00    +0.133 C 
ATOM     17  C   UNL     1      -2.407   3.269 -24.038  0.00  0.00    +0.075 C 
ATOM     18  C   UNL     1      -0.041   2.364 -23.144  0.00  0.00    +0.020 A 
ATOM     19  C   UNL     1      -1.171   2.772 -23.509  0.00  0.00    +0.091 C 
ATOM     20  C   UNL     1      -3.446   3.598 -24.251  0.00  0.00    +0.112 C 
ENDROOT
BRANCH  20  21
ATOM     21  C   UNL     1      -4.579   4.008 -24.617  0.00  0.00    +0.074 C 
ATOM     22  C   UNL     1      -5.432   3.194 -25.053  0.00  0.00    +0.042 C 
ATOM     23  C   UNL     1      -5.394   4.951 -24.788  0.00  0.00    +0.042 C 
BRANCH  21  24
ATOM     24  O   UNL     1      -4.248   5.185 -24.325  0.00  0.00    -0.388 OA
ATOM     25  H   UNL     1      -3.930   5.214 -23.409  0.00  0.00    +0.210 HD
ENDBRANCH  21  24
ENDBRANCH  20  21
BRANCH   1  27
ATOM     26  C   UNL     1      -2.577   3.382 -27.208  0.00  0.00    +0.276 C 
ATOM     27  O   UNL     1      -2.615   4.141 -26.205  0.00  0.00    -0.495 OA
ENDBRANCH   1  27
BRANCH   5  28
ATOM     28  O   UNL     1       3.070   2.080 -24.355  0.00  0.00    -0.491 OA
ATOM     29  C   UNL     1       4.177   2.509 -23.945  0.00  0.00    +0.277 C 
ENDBRANCH   5  28
TORSDOF 4
ENDMDL
MODEL 4
REMARK VINA RESULT:    -8.817      1.432      5.329
REMARK INTER + INTRA:          -6.719
REMARK INTER:                 -10.666
REMARK INTRA:                   3.946
REMARK UNBOUND:                 4.160
REMARK  Name = COC1=C2Oc3c(OC)ccc4c3[C@@]23CCN(C)[C@@H](C4)C3=C[C@@H]1C(C)(C)O      ZINC000100393763
REMARK  9 active torsions:
REMARK  status: ('A' for Active; 'I' for Inactive)
REMARK    1  A    between atoms: C_1  and  O_2
REMARK    2  A    between atoms: O_2  and  C_3
REMARK    3  A    between atoms: C_7  and  O_8
REMARK    4  A    between atoms: O_8  and  C_9
REMARK    5  A    between atoms: N_17  and  C_18
REMARK    6  A    between atoms: C_23  and  C_24
REMARK    7  A    between atoms: C_24  and  C_25
REMARK    8  A    between atoms: C_24  and  C_26
REMARK    9  A    between atoms: C_24  and  O_27
REMARK                            x       y       z     vdW  Elec       q    Type
REMARK                         _______ _______ _______ _____ _____    ______ ____
ROOT
ATOM      1  C   UNL     1      -0.233   3.173 -24.621  0.00  0.00    +0.146 C 
ATOM      2  C   UNL     1       0.805   2.816 -24.009  0.00  0.00    +0.159 C 
ATOM      3  O   UNL     1       2.314   2.674 -24.038  0.00  0.00    -0.452 OA
ATOM      4  C   UNL     1       2.892   2.096 -22.773  0.00  0.00    +0.174 A 
ATOM      5  C   UNL     1       3.943   1.735 -22.152  0.00  0.00    +0.162 A 
ATOM      6  C   UNL     1       3.845   1.262 -20.975  0.00  0.00    +0.050 A 
ATOM      7  C   UNL     1       2.722   1.151 -20.424  0.00  0.00    +0.008 A 
ATOM      8  C   UNL     1       1.686   1.510 -21.042  0.00  0.00    -0.034 A 
ATOM      9  C   UNL     1       0.536   1.399 -20.483  0.00  0.00    +0.094 C 
ATOM     10  C   UNL     1      -0.501   1.757 -21.098  0.00  0.00    +0.096 C 
ATOM     11  C   UNL     1      -0.407   2.229 -22.274  0.00  0.00    -0.007 C 
ATOM     12  C   UNL     1      -1.454   2.590 -22.896  0.00  0.00    -0.007 C 
ATOM     13  N   UNL     1      -1.740   2.134 -21.709  0.00  0.00    +0.239 N 
ATOM     14  H   UNL     1      -2.637   2.031 -21.235  0.00  0.00    +0.204 HD
ATOM     15  C   UNL     1      -2.835   2.000 -21.110  0.00  0.00    +0.191 C 
ATOM     16  C   UNL     1      -1.671   2.664 -23.022  0.00  0.00    +0.133 C 
ATOM     17  C   UNL     1      -0.389   2.778 -23.618  0.00  0.00    +0.075 C 
ATOM     18  C   UNL     1       1.758   1.982 -22.212  0.00  0.00    +0.020 A 
ATOM     19  C   UNL     1       0.720   2.339 -22.823  0.00  0.00    +0.091 C 
ATOM     20  C   UNL     1      -1.368   3.059 -24.060  0.00  0.00    +0.112 C 
ENDROOT
BRANCH  20  21
ATOM     21  C   UNL     1      -2.408   3.416 -24.672  0.00  0.00    +0.074 C 
ATOM     22  C   UNL     1      -2.861   4.579 -24.520  0.00  0.00    +0.042 C 
ATOM     23  C   UNL     1      -3.349   3.156 -25.468  0.00  0.00    +0.042 C 
BRANCH  21  24
ATOM     24  O   UNL     1      -2.487   2.278 -25.203  0.00  0.00    -0.388 OA
ATOM     25  H   UNL     1      -1.927   1.654 -24.715  0.00  0.00    +0.210 HD
ENDBRANCH  21  24
ENDBRANCH  20  21
BRANCH   1  27
ATOM     26  C   UNL     1       0.874   4.287 -26.132  0.00  0.00    +0.276 C 
ATOM     27  O   UNL     1      -0.149   3.641 -25.786  0.00  0.00    -0.495 OA
ENDBRANCH   1  27
BRANCH   5  28
ATOM     28  O   UNL     1       5.070   1.844 -22.700  0.00  0.00    -0.491 OA
ATOM     29  C   UNL     1       5.851   2.765 -22.354  0.00  0.00    +0.277 C 
ENDBRANCH   5  28
TORSDOF 4
ENDMDL
MODEL 5
REMARK VINA RESULT:    -8.173      2.383      3.709
REMARK INTER + INTRA:          -5.924
REMARK INTER:                  -9.902
REMARK INTRA:                   3.977
REMARK UNBOUND:                 4.160
REMARK  Name = COC1=C2Oc3c(OC)ccc4c3[C@@]23CCN(C)[C@@H](C4)C3=C[C@@H]1C(C)(C)O      ZINC000100393763
REMARK  9 active torsions:
REMARK  status: ('A' for Active; 'I' for Inactive)
REMARK    1  A    between atoms: C_1  and  O_2
REMARK    2  A    between atoms: O_2  and  C_3
REMARK    3  A    between atoms: C_7  and  O_8
REMARK    4  A    between atoms: O_8  and  C_9
REMARK    5  A    between atoms: N_17  and  C_18
REMARK    6  A    between atoms: C_23  and  C_24
REMARK    7  A    between atoms: C_24  and  C_25
REMARK    8  A    between atoms: C_24  and  C_26
REMARK    9  A    between atoms: C_24  and  O_27
REMARK                            x       y       z     vdW  Elec       q    Type
REMARK                         _______ _______ _______ _____ _____    ______ ____
ROOT
ATOM      1  C   UNL     1       4.033   4.191 -22.867  0.00  0.00    +0.146 C 
ATOM      2  C   UNL     1       2.784   4.116 -22.981  0.00  0.00    +0.159 C 
ATOM      3  O   UNL     1       1.504   4.787 -23.439  0.00  0.00    -0.452 OA
ATOM      4  C   UNL     1       0.269   3.957 -23.208  0.00  0.00    +0.174 A 
ATOM      5  C   UNL     1      -0.997   3.879 -23.323  0.00  0.00    +0.162 A 
ATOM      6  C   UNL     1      -1.600   2.835 -22.919  0.00  0.00    +0.050 A 
ATOM      7  C   UNL     1      -0.957   1.884 -22.410  0.00  0.00    +0.008 A 
ATOM      8  C   UNL     1       0.294   1.965 -22.298  0.00  0.00    -0.034 A 
ATOM      9  C   UNL     1       0.956   0.996 -21.778  0.00  0.00    +0.094 C 
ATOM     10  C   UNL     1       2.206   1.076 -21.666  0.00  0.00    +0.096 C 
ATOM     11  C   UNL     1       2.812   2.118 -22.068  0.00  0.00    -0.007 C 
ATOM     12  C   UNL     1       4.075   2.198 -21.954  0.00  0.00    -0.007 C 
ATOM     13  N   UNL     1       3.627   1.065 -21.492  0.00  0.00    +0.239 N 
ATOM     14  H   UNL     1       4.121   0.277 -21.074  0.00  0.00    +0.204 HD
ATOM     15  C   UNL     1       4.218   0.085 -20.975  0.00  0.00    +0.191 C 
ATOM     16  C   UNL     1       4.335   2.213 -21.930  0.00  0.00    +0.133 C 
ATOM     17  C   UNL     1       3.581   3.270 -22.501  0.00  0.00    +0.075 C 
ATOM     18  C   UNL     1       0.916   2.993 -22.692  0.00  0.00    +0.020 A 
ATOM     19  C   UNL     1       2.164   3.069 -22.578  0.00  0.00    +0.091 C 
ATOM     20  C   UNL     1       4.680   3.227 -22.351  0.00  0.00    +0.112 C 
ENDROOT
BRANCH  20  21
ATOM     21  C   UNL     1       5.932   3.302 -22.236  0.00  0.00    +0.074 C 
ATOM     22  C   UNL     1       6.444   3.663 -21.146  0.00  0.00    +0.042 C 
ATOM     23  C   UNL     1       7.081   3.181 -22.734  0.00  0.00    +0.042 C 
BRANCH  21  24
ATOM     24  O   UNL     1       6.064   2.929 -23.430  0.00  0.00    -0.388 OA
ATOM     25  H   UNL     1       6.434   2.032 -23.449  0.00  0.00    +0.210 HD
ENDBRANCH  21  24
ENDBRANCH  20  21
BRANCH   1  27
ATOM     26  C   UNL     1       4.443   6.325 -22.696  0.00  0.00    +0.276 C 
ATOM     27  O   UNL     1       4.641   5.220 -23.263  0.00  0.00    -0.495 OA
ENDBRANCH   1  27
BRANCH   5  28
ATOM     28  O   UNL     1      -1.645   4.829 -23.832  0.00  0.00    -0.491 OA
ATOM     29  C   UNL     1      -2.739   4.606 -24.409  0.00  0.00    +0.277 C 
ENDBRANCH   5  28
TORSDOF 4
ENDMDL
MODEL 6
REMARK VINA RESULT:    -7.795      3.075      6.641
REMARK INTER + INTRA:          -5.459
REMARK INTER:                  -9.772
REMARK INTRA:                   4.313
REMARK UNBOUND:                 4.160
REMARK  Name = COC1=C2Oc3c(OC)ccc4c3[C@@]23CCN(C)[C@@H](C4)C3=C[C@@H]1C(C)(C)O      ZINC000100393763
REMARK  9 active torsions:
REMARK  status: ('A' for Active; 'I' for Inactive)
REMARK    1  A    between atoms: C_1  and  O_2
REMARK    2  A    between atoms: O_2  and  C_3
REMARK    3  A    between atoms: C_7  and  O_8
REMARK    4  A    between atoms: O_8  and  C_9
REMARK    5  A    between atoms: N_17  and  C_18
REMARK    6  A    between atoms: C_23  and  C_24
REMARK    7  A    between atoms: C_24  and  C_25
REMARK    8  A    between atoms: C_24  and  C_26
REMARK    9  A    between atoms: C_24  and  O_27
REMARK                            x       y       z     vdW  Elec       q    Type
REMARK                         _______ _______ _______ _____ _____    ______ ____
ROOT
ATOM      1  C   UNL     1       1.087   4.793 -23.658  0.00  0.00    +0.146 C 
ATOM      2  C   UNL     1       2.192   5.249 -23.270  0.00  0.00    +0.159 C 
ATOM      3  O   UNL     1       2.947   6.422 -22.675  0.00  0.00    -0.452 OA
ATOM      4  C   UNL     1       4.419   6.162 -22.490  0.00  0.00    +0.174 A 
ATOM      5  C   UNL     1       5.539   6.624 -22.097  0.00  0.00    +0.162 A 
ATOM      6  C   UNL     1       6.579   5.896 -22.176  0.00  0.00    +0.050 A 
ATOM      7  C   UNL     1       6.508   4.730 -22.637  0.00  0.00    +0.008 A 
ATOM      8  C   UNL     1       5.399   4.278 -23.024  0.00  0.00    -0.034 A 
ATOM      9  C   UNL     1       5.321   3.088 -23.496  0.00  0.00    +0.094 C 
ATOM     10  C   UNL     1       4.214   2.634 -23.883  0.00  0.00    +0.096 C 
ATOM     11  C   UNL     1       3.172   3.359 -23.806  0.00  0.00    -0.007 C 
ATOM     12  C   UNL     1       2.054   2.900 -24.197  0.00  0.00    -0.007 C 
ATOM     13  N   UNL     1       3.005   2.024 -24.350  0.00  0.00    +0.239 N 
ATOM     14  H   UNL     1       2.980   1.074 -24.719  0.00  0.00    +0.204 HD
ATOM     15  C   UNL     1       2.994   0.852 -24.802  0.00  0.00    +0.191 C 
ATOM     16  C   UNL     1       1.824   2.805 -24.278  0.00  0.00    +0.133 C 
ATOM     17  C   UNL     1       1.936   4.118 -23.753  0.00  0.00    +0.075 C 
ATOM     18  C   UNL     1       4.351   4.983 -22.956  0.00  0.00    +0.020 A 
ATOM     19  C   UNL     1       3.247   4.526 -23.344  0.00  0.00    +0.091 C 
ATOM     20  C   UNL     1       1.019   3.612 -24.124  0.00  0.00    +0.112 C 
ENDROOT
BRANCH  20  21
ATOM     21  C   UNL     1      -0.087   3.154 -24.512  0.00  0.00    +0.074 C 
ATOM     22  C   UNL     1      -0.769   2.422 -23.751  0.00  0.00    +0.042 C 
ATOM     23  C   UNL     1      -0.971   3.049 -25.402  0.00  0.00    +0.042 C 
BRANCH  21  24
ATOM     24  O   UNL     1       0.060   3.736 -25.618  0.00  0.00    -0.388 OA
ATOM     25  H   UNL     1       0.992   3.979 -25.734  0.00  0.00    +0.210 HD
ENDBRANCH  21  24
ENDBRANCH  20  21
BRANCH   1  27
ATOM     26  C   UNL     1      -0.566   5.606 -22.493  0.00  0.00    +0.276 C 
ATOM     27  O   UNL     1       0.051   5.503 -23.585  0.00  0.00    -0.495 OA
ENDBRANCH   1  27
BRANCH   5  28
ATOM     28  O   UNL     1       5.614   7.791 -21.635  0.00  0.00    -0.491 OA
ATOM     29  C   UNL     1       5.093   8.063 -20.525  0.00  0.00    +0.277 C 
ENDBRANCH   5  28
TORSDOF 4
ENDMDL
MODEL 7
REMARK VINA RESULT:    -7.545      4.034      6.253
REMARK INTER + INTRA:          -5.150
REMARK INTER:                  -9.048
REMARK INTRA:                   3.898
REMARK UNBOUND:                 4.160
REMARK  Name = COC1=C2Oc3c(OC)ccc4c3[C@@]23CCN(C)[C@@H](C4)C3=C[C@@H]1C(C)(C)O      ZINC000100393763
REMARK  9 active torsions:
REMARK  status: ('A' for Active; 'I' for Inactive)
REMARK    1  A    between atoms: C_1  and  O_2
REMARK    2  A    between atoms: O_2  and  C_3
REMARK    3  A    between atoms: C_7  and  O_8
REMARK    4  A    between atoms: O_8  and  C_9
REMARK    5  A    between atoms: N_17  and  C_18
REMARK    6  A    between atoms: C_23  and  C_24
REMARK    7  A    between atoms: C_24  and  C_25
REMARK    8  A    between atoms: C_24  and  C_26
REMARK    9  A    between atoms: C_24  and  O_27
REMARK                            x       y       z     vdW  Elec       q    Type
REMARK                         _______ _______ _______ _____ _____    ______ ____
ROOT
ATOM      1  C   UNL     1       4.957   6.552 -22.148  0.00  0.00    +0.146 C 
ATOM      2  C   UNL     1       3.921   5.986 -22.582  0.00  0.00    +0.159 C 
ATOM      3  O   UNL     1       2.425   6.071 -22.809  0.00  0.00    -0.452 OA
ATOM      4  C   UNL     1       1.841   4.843 -23.456  0.00  0.00    +0.174 A 
ATOM      5  C   UNL     1       0.792   4.269 -23.895  0.00  0.00    +0.162 A 
ATOM      6  C   UNL     1       0.878   3.103 -24.395  0.00  0.00    +0.050 A 
ATOM      7  C   UNL     1       1.988   2.517 -24.458  0.00  0.00    +0.008 A 
ATOM      8  C   UNL     1       3.021   3.088 -24.023  0.00  0.00    -0.034 A 
ATOM      9  C   UNL     1       4.156   2.493 -24.085  0.00  0.00    +0.094 C 
ATOM     10  C   UNL     1       5.190   3.062 -23.650  0.00  0.00    +0.096 C 
ATOM     11  C   UNL     1       5.108   4.227 -23.150  0.00  0.00    -0.007 C 
ATOM     12  C   UNL     1       6.152   4.802 -22.711  0.00  0.00    -0.007 C 
ATOM     13  N   UNL     1       6.425   3.620 -23.185  0.00  0.00    +0.239 N 
ATOM     14  H   UNL     1       7.310   3.118 -23.251  0.00  0.00    +0.204 HD
ATOM     15  C   UNL     1       7.506   2.987 -23.274  0.00  0.00    +0.191 C 
ATOM     16  C   UNL     1       6.368   4.919 -22.621  0.00  0.00    +0.133 C 
ATOM     17  C   UNL     1       5.102   5.555 -22.563  0.00  0.00    +0.075 C 
ATOM     18  C   UNL     1       2.960   4.247 -23.521  0.00  0.00    +0.020 A 
ATOM     19  C   UNL     1       3.995   4.811 -23.088  0.00  0.00    +0.091 C 
ATOM     20  C   UNL     1       6.077   5.955 -22.214  0.00  0.00    +0.112 C 
ENDROOT
BRANCH  20  21
ATOM     21  C   UNL     1       7.115   6.521 -21.780  0.00  0.00    +0.074 C 
ATOM     22  C   UNL     1       7.491   6.326 -20.596  0.00  0.00    +0.042 C 
ATOM     23  C   UNL     1       8.096   7.288 -21.963  0.00  0.00    +0.042 C 
BRANCH  21  24
ATOM     24  O   UNL     1       7.281   7.074 -22.897  0.00  0.00    -0.388 OA
ATOM     25  H   UNL     1       6.564   6.814 -23.497  0.00  0.00    +0.210 HD
ENDBRANCH  21  24
ENDBRANCH  20  21
BRANCH   1  27
ATOM     26  C   UNL     1       4.166   8.582 -22.197  0.00  0.00    +0.276 C 
ATOM     27  O   UNL     1       4.884   7.706 -21.651  0.00  0.00    -0.495 OA
ENDBRANCH   1  27
BRANCH   5  28
ATOM     28  O   UNL     1      -0.320   4.852 -23.834  0.00  0.00    -0.491 OA
ATOM     29  C   UNL     1      -1.064   4.686 -22.835  0.00  0.00    +0.277 C 
ENDBRANCH   5  28
TORSDOF 4
ENDMDL
MODEL 8
REMARK VINA RESULT:    -7.489      2.166      3.721
REMARK INTER + INTRA:          -5.080
REMARK INTER:                  -9.016
REMARK INTRA:                   3.936
REMARK UNBOUND:                 4.160
REMARK  Name = COC1=C2Oc3c(OC)ccc4c3[C@@]23CCN(C)[C@@H](C4)C3=C[C@@H]1C(C)(C)O      ZINC000100393763
REMARK  9 active torsions:
REMARK  status: ('A' for Active; 'I' for Inactive)
REMARK    1  A    between atoms: C_1  and  O_2
REMARK    2  A    between atoms: O_2  and  C_3
REMARK    3  A    between atoms: C_7  and  O_8
REMARK    4  A    between atoms: O_8  and  C_9
REMARK    5  A    between atoms: N_17  and  C_18
REMARK    6  A    between atoms: C_23  and  C_24
REMARK    7  A    between atoms: C_24  and  C_25
REMARK    8  A    between atoms: C_24  and  C_26
REMARK    9  A    between atoms: C_24  and  O_27
REMARK                            x       y       z     vdW  Elec       q    Type
REMARK                         _______ _______ _______ _____ _____    ______ ____
ROOT
ATOM      1  C   UNL     1       2.633   1.433 -22.358  0.00  0.00    +0.146 C 
ATOM      2  C   UNL     1       1.507   1.919 -22.629  0.00  0.00    +0.159 C 
ATOM      3  O   UNL     1       0.021   1.669 -22.803  0.00  0.00    -0.452 OA
ATOM      4  C   UNL     1      -0.759   2.902 -23.175  0.00  0.00    +0.174 A 
ATOM      5  C   UNL     1      -1.901   3.395 -23.450  0.00  0.00    +0.162 A 
ATOM      6  C   UNL     1      -2.000   4.634 -23.720  0.00  0.00    +0.050 A 
ATOM      7  C   UNL     1      -0.983   5.370 -23.718  0.00  0.00    +0.008 A 
ATOM      8  C   UNL     1       0.143   4.879 -23.446  0.00  0.00    -0.034 A 
ATOM      9  C   UNL     1       1.185   5.627 -23.442  0.00  0.00    +0.094 C 
ATOM     10  C   UNL     1       2.311   5.138 -23.170  0.00  0.00    +0.096 C 
ATOM     11  C   UNL     1       2.414   3.900 -22.899  0.00  0.00    -0.007 C 
ATOM     12  C   UNL     1       3.552   3.406 -22.625  0.00  0.00    -0.007 C 
ATOM     13  N   UNL     1       3.637   4.682 -22.875  0.00  0.00    +0.239 N 
ATOM     14  H   UNL     1       4.443   5.305 -22.881  0.00  0.00    +0.204 HD
ATOM     15  C   UNL     1       4.619   5.465 -22.887  0.00  0.00    +0.191 C 
ATOM     16  C   UNL     1       3.787   3.305 -22.569  0.00  0.00    +0.133 C 
ATOM     17  C   UNL     1       2.620   2.499 -22.579  0.00  0.00    +0.075 C 
ATOM     18  C   UNL     1       0.267   3.650 -23.174  0.00  0.00    +0.020 A 
ATOM     19  C   UNL     1       1.393   3.165 -22.903  0.00  0.00    +0.091 C 
ATOM     20  C   UNL     1       3.661   2.182 -22.356  0.00  0.00    +0.112 C 
ENDROOT
BRANCH  20  21
ATOM     21  C   UNL     1       4.790   1.696 -22.085  0.00  0.00    +0.074 C 
ATOM     22  C   UNL     1       5.227   1.737 -20.906  0.00  0.00    +0.042 C 
ATOM     23  C   UNL     1       5.842   1.111 -22.452  0.00  0.00    +0.042 C 
BRANCH  21  24
ATOM     24  O   UNL     1       4.939   1.367 -23.290  0.00  0.00    -0.388 OA
ATOM     25  H   UNL     1       5.883   1.258 -23.481  0.00  0.00    +0.210 HD
ENDBRANCH  21  24
ENDBRANCH  20  21
BRANCH   1  27
ATOM     26  C   UNL     1       2.233  -0.652 -22.851  0.00  0.00    +0.276 C 
ATOM     27  O   UNL     1       2.744   0.209 -22.088  0.00  0.00    -0.495 OA
ENDBRANCH   1  27
BRANCH   5  28
ATOM     28  O   UNL     1      -2.922   2.661 -23.454  0.00  0.00    -0.491 OA
ATOM     29  C   UNL     1      -3.952   3.012 -22.824  0.00  0.00    +0.277 C 
ENDBRANCH   5  28
TORSDOF 4
ENDMDL
MODEL 9
REMARK VINA RESULT:    -7.464      2.153      6.334
REMARK INTER + INTRA:          -5.050
REMARK INTER:                  -9.210
REMARK INTRA:                   4.160
REMARK UNBOUND:                 4.160
REMARK  Name = COC1=C2Oc3c(OC)ccc4c3[C@@]23CCN(C)[C@@H](C4)C3=C[C@@H]1C(C)(C)O      ZINC000100393763
REMARK  9 active torsions:
REMARK  status: ('A' for Active; 'I' for Inactive)
REMARK    1  A    between atoms: C_1  and  O_2
REMARK    2  A    between atoms: O_2  and  C_3
REMARK    3  A    between atoms: C_7  and  O_8
REMARK    4  A    between atoms: O_8  and  C_9
REMARK    5  A    between atoms: N_17  and  C_18
REMARK    6  A    between atoms: C_23  and  C_24
REMARK    7  A    between atoms: C_24  and  C_25
REMARK    8  A    between atoms: C_24  and  C_26
REMARK    9  A    between atoms: C_24  and  O_27
REMARK                            x       y       z     vdW  Elec       q    Type
REMARK                         _______ _______ _______ _____ _____    ______ ____
ROOT
ATOM      1  C   UNL     1      -0.560   2.126 -22.512  0.00  0.00    +0.146 C 
ATOM      2  C   UNL     1       0.613   1.806 -22.195  0.00  0.00    +0.159 C 
ATOM      3  O   UNL     1       1.513   1.067 -21.224  0.00  0.00    -0.452 OA
ATOM      4  C   UNL     1       2.977   1.164 -21.563  0.00  0.00    +0.174 A 
ATOM      5  C   UNL     1       4.166   0.840 -21.242  0.00  0.00    +0.162 A 
ATOM      6  C   UNL     1       5.139   1.237 -21.959  0.00  0.00    +0.050 A 
ATOM      7  C   UNL     1       4.934   1.945 -22.976  0.00  0.00    +0.008 A 
ATOM      8  C   UNL     1       3.757   2.263 -23.289  0.00  0.00    -0.034 A 
ATOM      9  C   UNL     1       3.542   2.985 -24.327  0.00  0.00    +0.094 C 
ATOM     10  C   UNL     1       2.367   3.304 -24.641  0.00  0.00    +0.096 C 
ATOM     11  C   UNL     1       1.392   2.909 -23.927  0.00  0.00    -0.007 C 
ATOM     12  C   UNL     1       0.205   3.231 -24.245  0.00  0.00    -0.007 C 
ATOM     13  N   UNL     1       1.071   3.722 -25.085  0.00  0.00    +0.239 N 
ATOM     14  H   UNL     1       0.937   4.297 -25.917  0.00  0.00    +0.204 HD
ATOM     15  C   UNL     1       0.925   4.430 -26.112  0.00  0.00    +0.191 C 
ATOM     16  C   UNL     1      -0.039   3.298 -24.311  0.00  0.00    +0.133 C 
ATOM     17  C   UNL     1       0.224   2.500 -23.168  0.00  0.00    +0.075 C 
ATOM     18  C   UNL     1       2.773   1.880 -22.592  0.00  0.00    +0.020 A 
ATOM     19  C   UNL     1       1.602   2.200 -22.909  0.00  0.00    +0.091 C 
ATOM     20  C   UNL     1      -0.764   2.842 -23.542  0.00  0.00    +0.112 C 
ENDROOT
BRANCH  20  21
ATOM     21  C   UNL     1      -1.939   3.164 -23.860  0.00  0.00    +0.074 C 
ATOM     22  C   UNL     1      -2.403   4.280 -23.513  0.00  0.00    +0.042 C 
ATOM     23  C   UNL     1      -3.028   2.890 -24.428  0.00  0.00    +0.042 C 
BRANCH  21  24
ATOM     24  O   UNL     1      -2.083   2.060 -24.446  0.00  0.00    -0.388 OA
ATOM     25  H   UNL     1      -1.929   1.338 -23.817  0.00  0.00    +0.210 HD
ENDBRANCH  21  24
ENDBRANCH  20  21
BRANCH   1  27
ATOM     26  C   UNL     1      -1.755   2.276 -20.696  0.00  0.00    +0.276 C 
ATOM     27  O   UNL     1      -1.531   1.739 -21.811  0.00  0.00    -0.495 OA
ENDBRANCH   1  27
BRANCH   5  28
ATOM     28  O   UNL     1       4.376   0.132 -20.225  0.00  0.00    -0.491 OA
ATOM     29  C   UNL     1       5.458  -0.495 -20.107  0.00  0.00    +0.277 C 
ENDBRANCH   5  28
TORSDOF 4
ENDMDL
