MODEL 1
REMARK VINA RESULT:    -9.985      0.000      0.000
REMARK INTER + INTRA:         -13.648
REMARK INTER:                 -12.759
REMARK INTRA:                  -0.890
REMARK UNBOUND:                -0.453
REMARK  Name = ZINC000000580569
REMARK  7 active torsions:
REMARK  status: ('A' for Active; 'I' for Inactive)
REMARK    1  A    between atoms: O5*_1  and  C5*_2
REMARK    2  A    between atoms: C5*_2  and  C4*_3
REMARK    3  A    between atoms: C1*_5  and  N_6
REMARK    4  A    between atoms: N_11  and  C_12
REMARK    5  A    between atoms: C_12  and  C_13
REMARK    6  A    between atoms: C2*_23  and  O2*_24
REMARK    7  A    between atoms: C3*_25  and  O3*_26
REMARK                            x       y       z     vdW  Elec       q    Type
REMARK                         _______ _______ _______ _____ _____    ______ ____
ROOT
ATOM      1  N   UNL     1       3.156   2.391 -23.043  0.00  0.00    -0.286 N 
ATOM      2  C   UNL     1       2.648   1.195 -23.020  0.00  0.00    +0.203 A 
ATOM      3  N   UNL     1       1.378   1.292 -23.285  0.00  0.00    -0.231 NA
ATOM      4  C   UNL     1       1.102   2.549 -23.471  0.00  0.00    +0.147 A 
ATOM      5  C   UNL     1      -0.008   3.163 -23.757  0.00  0.00    +0.150 A 
ATOM      6  N   UNL     1      -0.019   4.455 -23.893  0.00  0.00    -0.219 NA
ATOM      7  C   UNL     1       1.079   5.134 -23.744  0.00  0.00    +0.225 A 
ATOM      8  N   UNL     1       2.189   4.520 -23.457  0.00  0.00    -0.216 NA
ATOM      9  N   UNL     1      -1.106   2.483 -23.906  0.00  0.00    -0.323 N 
ATOM     10  H   UNL     1      -1.097   1.503 -23.803  0.00  0.00    +0.148 HD
ATOM     11  C   UNL     1       2.200   3.228 -23.321  0.00  0.00    +0.167 A 
ENDROOT
BRANCH   1  14
ATOM     12  C4* UNL     1       6.409   3.242 -23.131  0.00  0.00    +0.177 C 
ATOM     13  O4* UNL     1       5.284   2.994 -23.732  0.00  0.00    -0.346 OA
ATOM     14  C1* UNL     1       4.400   2.698 -22.825  0.00  0.00    +0.253 C 
ATOM     15  C2* UNL     1       4.980   2.762 -21.664  0.00  0.00    +0.195 C 
ATOM     16  C3* UNL     1       6.222   3.098 -21.852  0.00  0.00    +0.178 C 
BRANCH  15  17
ATOM     17  O2* UNL     1       4.417   2.530 -20.515  0.00  0.00    -0.385 OA
ATOM     18  H2* UNL     1       5.064   2.130 -19.913  0.00  0.00    +0.210 HD
ENDBRANCH  15  17
BRANCH  16  19
ATOM     19  O3* UNL     1       7.118   3.262 -20.925  0.00  0.00    -0.386 OA
ATOM     20  H3* UNL     1       7.521   2.405 -20.712  0.00  0.00    +0.210 HD
ENDBRANCH  16  19
BRANCH  12  21
ATOM     21  C5* UNL     1       7.526   3.574 -23.706  0.00  0.00    +0.190 C 
BRANCH  21  22
ATOM     22  O5* UNL     1       8.589   2.845 -23.534  0.00  0.00    -0.392 OA
ATOM     23  H5* UNL     1       8.740   2.304 -24.323  0.00  0.00    +0.210 HD
ENDBRANCH  21  22
ENDBRANCH  12  21
ENDBRANCH   1  14
BRANCH   9  24
ATOM     24  C   UNL     1      -2.216   3.096 -24.192  0.00  0.00    +0.138 C 
BRANCH  24  25
ATOM     25  C   UNL     1      -3.199   3.091 -23.342  0.00  0.00    -0.030 A 
ATOM     26  C   UNL     1      -4.355   3.578 -23.682  0.00  0.00    +0.005 A 
ATOM     27  C   UNL     1      -5.339   3.572 -22.832  0.00  0.00    +0.000 A 
ATOM     28  C   UNL     1      -5.166   3.079 -21.642  0.00  0.00    +0.000 A 
ATOM     29  C   UNL     1      -4.010   2.591 -21.301  0.00  0.00    +0.000 A 
ATOM     30  C   UNL     1      -3.027   2.597 -22.151  0.00  0.00    +0.005 A 
ENDBRANCH  24  25
ENDBRANCH   9  24
TORSDOF 7
ENDMDL
MODEL 2
REMARK VINA RESULT:    -9.655      1.253      2.390
REMARK INTER + INTRA:         -13.212
REMARK INTER:                 -12.563
REMARK INTRA:                  -0.649
REMARK UNBOUND:                -0.453
REMARK  Name = ZINC000000580569
REMARK  7 active torsions:
REMARK  status: ('A' for Active; 'I' for Inactive)
REMARK    1  A    between atoms: O5*_1  and  C5*_2
REMARK    2  A    between atoms: C5*_2  and  C4*_3
REMARK    3  A    between atoms: C1*_5  and  N_6
REMARK    4  A    between atoms: N_11  and  C_12
REMARK    5  A    between atoms: C_12  and  C_13
REMARK    6  A    between atoms: C2*_23  and  O2*_24
REMARK    7  A    between atoms: C3*_25  and  O3*_26
REMARK                            x       y       z     vdW  Elec       q    Type
REMARK                         _______ _______ _______ _____ _____    ______ ____
ROOT
ATOM      1  N   UNL     1       3.323   4.005 -22.890  0.00  0.00    -0.286 N 
ATOM      2  C   UNL     1       2.686   5.073 -23.267  0.00  0.00    +0.203 A 
ATOM      3  N   UNL     1       1.414   4.802 -23.272  0.00  0.00    -0.231 NA
ATOM      4  C   UNL     1       1.266   3.566 -22.897  0.00  0.00    +0.147 A 
ATOM      5  C   UNL     1       0.209   2.825 -22.741  0.00  0.00    +0.150 A 
ATOM      6  N   UNL     1       0.331   1.592 -22.348  0.00  0.00    -0.219 NA
ATOM      7  C   UNL     1       1.511   1.100 -22.112  0.00  0.00    +0.225 A 
ATOM      8  N   UNL     1       2.568   1.841 -22.268  0.00  0.00    -0.216 NA
ATOM      9  N   UNL     1      -0.971   3.318 -22.977  0.00  0.00    -0.323 N 
ATOM     10  H   UNL     1      -1.063   4.253 -23.274  0.00  0.00    +0.148 HD
ATOM     11  C   UNL     1       2.445   3.074 -22.661  0.00  0.00    +0.167 A 
ENDROOT
BRANCH   1  14
ATOM     12  C4* UNL     1       6.592   4.173 -22.112  0.00  0.00    +0.177 C 
ATOM     13  O4* UNL     1       5.364   4.570 -21.951  0.00  0.00    -0.346 OA
ATOM     14  C1* UNL     1       4.612   3.888 -22.763  0.00  0.00    +0.253 C 
ATOM     15  C2* UNL     1       5.373   3.069 -23.424  0.00  0.00    +0.195 C 
ATOM     16  C3* UNL     1       6.598   3.245 -23.022  0.00  0.00    +0.178 C 
BRANCH  15  17
ATOM     17  O2* UNL     1       4.981   2.223 -24.329  0.00  0.00    -0.385 OA
ATOM     18  H2* UNL     1       5.748   1.907 -24.832  0.00  0.00    +0.210 HD
ENDBRANCH  15  17
BRANCH  16  19
ATOM     19  O3* UNL     1       7.643   2.605 -23.454  0.00  0.00    -0.386 OA
ATOM     20  H3* UNL     1       8.033   3.090 -24.198  0.00  0.00    +0.210 HD
ENDBRANCH  16  19
BRANCH  12  21
ATOM     21  C5* UNL     1       7.630   4.623 -21.474  0.00  0.00    +0.190 C 
BRANCH  21  22
ATOM     22  O5* UNL     1       7.709   4.490 -20.183  0.00  0.00    -0.392 OA
ATOM     23  H5* UNL     1       7.340   3.631 -19.924  0.00  0.00    +0.210 HD
ENDBRANCH  21  22
ENDBRANCH  12  21
ENDBRANCH   1  14
BRANCH   9  24
ATOM     24  C   UNL     1      -2.028   2.578 -22.820  0.00  0.00    +0.138 C 
BRANCH  24  25
ATOM     25  C   UNL     1      -3.201   3.048 -23.124  0.00  0.00    -0.030 A 
ATOM     26  C   UNL     1      -3.412   3.557 -24.301  0.00  0.00    +0.005 A 
ATOM     27  C   UNL     1      -4.586   4.026 -24.605  0.00  0.00    +0.000 A 
ATOM     28  C   UNL     1      -5.548   3.987 -23.732  0.00  0.00    +0.000 A 
ATOM     29  C   UNL     1      -5.337   3.478 -22.554  0.00  0.00    +0.000 A 
ATOM     30  C   UNL     1      -4.164   3.008 -22.250  0.00  0.00    +0.005 A 
ENDBRANCH  24  25
ENDBRANCH   9  24
TORSDOF 7
ENDMDL
MODEL 3
REMARK VINA RESULT:    -9.033      1.346      2.272
REMARK INTER + INTRA:         -12.391
REMARK INTER:                 -11.743
REMARK INTRA:                  -0.647
REMARK UNBOUND:                -0.453
REMARK  Name = ZINC000000580569
REMARK  7 active torsions:
REMARK  status: ('A' for Active; 'I' for Inactive)
REMARK    1  A    between atoms: O5*_1  and  C5*_2
REMARK    2  A    between atoms: C5*_2  and  C4*_3
REMARK    3  A    between atoms: C1*_5  and  N_6
REMARK    4  A    between atoms: N_11  and  C_12
REMARK    5  A    between atoms: C_12  and  C_13
REMARK    6  A    between atoms: C2*_23  and  O2*_24
REMARK    7  A    between atoms: C3*_25  and  O3*_26
REMARK                            x       y       z     vdW  Elec       q    Type
REMARK                         _______ _______ _______ _____ _____    ______ ____
ROOT
ATOM      1  N   UNL     1       4.304   4.060 -23.166  0.00  0.00    -0.286 N 
ATOM      2  C   UNL     1       3.605   5.153 -23.247  0.00  0.00    +0.203 A 
ATOM      3  N   UNL     1       2.346   4.829 -23.216  0.00  0.00    -0.231 NA
ATOM      4  C   UNL     1       2.267   3.536 -23.115  0.00  0.00    +0.147 A 
ATOM      5  C   UNL     1       1.249   2.729 -23.048  0.00  0.00    +0.150 A 
ATOM      6  N   UNL     1       1.441   1.447 -22.950  0.00  0.00    -0.219 NA
ATOM      7  C   UNL     1       2.651   0.971 -22.919  0.00  0.00    +0.225 A 
ATOM      8  N   UNL     1       3.668   1.778 -22.987  0.00  0.00    -0.216 NA
ATOM      9  N   UNL     1       0.040   3.204 -23.078  0.00  0.00    -0.323 N 
ATOM     10  H   UNL     1      -0.106   4.176 -23.153  0.00  0.00    +0.148 HD
ATOM     11  C   UNL     1       3.476   3.060 -23.085  0.00  0.00    +0.167 A 
ENDROOT
BRANCH   1  14
ATOM     12  C4* UNL     1       7.576   3.517 -23.724  0.00  0.00    +0.177 C 
ATOM     13  O4* UNL     1       6.329   3.385 -24.066  0.00  0.00    -0.346 OA
ATOM     14  C1* UNL     1       5.601   3.979 -23.167  0.00  0.00    +0.253 C 
ATOM     15  C2* UNL     1       6.398   4.478 -22.270  0.00  0.00    +0.195 C 
ATOM     16  C3* UNL     1       7.619   4.192 -22.614  0.00  0.00    +0.178 C 
BRANCH  15  17
ATOM     17  O2* UNL     1       6.038   5.145 -21.214  0.00  0.00    -0.385 OA
ATOM     18  H2* UNL     1       6.231   6.087 -21.345  0.00  0.00    +0.210 HD
ENDBRANCH  15  17
BRANCH  16  19
ATOM     19  O3* UNL     1       8.694   4.524 -21.962  0.00  0.00    -0.386 OA
ATOM     20  H3* UNL     1       9.165   3.722 -21.688  0.00  0.00    +0.210 HD
ENDBRANCH  16  19
BRANCH  12  21
ATOM     21  C5* UNL     1       8.600   3.055 -24.376  0.00  0.00    +0.190 C 
BRANCH  21  22
ATOM     22  O5* UNL     1       9.054   1.865 -24.115  0.00  0.00    -0.392 OA
ATOM     23  H5* UNL     1       9.346   1.826 -23.191  0.00  0.00    +0.210 HD
ENDBRANCH  21  22
ENDBRANCH  12  21
ENDBRANCH   1  14
BRANCH   9  24
ATOM     24  C   UNL     1      -0.978   2.399 -23.011  0.00  0.00    +0.138 C 
BRANCH  24  25
ATOM     25  C   UNL     1      -2.064   2.772 -22.402  0.00  0.00    -0.030 A 
ATOM     26  C   UNL     1      -3.165   2.928 -23.075  0.00  0.00    +0.005 A 
ATOM     27  C   UNL     1      -4.251   3.302 -22.466  0.00  0.00    +0.000 A 
ATOM     28  C   UNL     1      -4.236   3.520 -21.184  0.00  0.00    +0.000 A 
ATOM     29  C   UNL     1      -3.135   3.364 -20.511  0.00  0.00    +0.000 A 
ATOM     30  C   UNL     1      -2.048   2.990 -21.120  0.00  0.00    +0.005 A 
ENDBRANCH  24  25
ENDBRANCH   9  24
TORSDOF 7
ENDMDL
MODEL 4
REMARK VINA RESULT:    -8.769      3.568      8.677
REMARK INTER + INTRA:         -12.041
REMARK INTER:                 -11.041
REMARK INTRA:                  -1.001
REMARK UNBOUND:                -0.453
REMARK  Name = ZINC000000580569
REMARK  7 active torsions:
REMARK  status: ('A' for Active; 'I' for Inactive)
REMARK    1  A    between atoms: O5*_1  and  C5*_2
REMARK    2  A    between atoms: C5*_2  and  C4*_3
REMARK    3  A    between atoms: C1*_5  and  N_6
REMARK    4  A    between atoms: N_11  and  C_12
REMARK    5  A    between atoms: C_12  and  C_13
REMARK    6  A    between atoms: C2*_23  and  O2*_24
REMARK    7  A    between atoms: C3*_25  and  O3*_26
REMARK                            x       y       z     vdW  Elec       q    Type
REMARK                         _______ _______ _______ _____ _____    ______ ____
ROOT
ATOM      1  N   UNL     1      -0.085   4.001 -23.602  0.00  0.00    -0.286 N 
ATOM      2  C   UNL     1       0.479   5.172 -23.631  0.00  0.00    +0.203 A 
ATOM      3  N   UNL     1       1.726   5.026 -23.290  0.00  0.00    -0.231 NA
ATOM      4  C   UNL     1       1.931   3.765 -23.050  0.00  0.00    +0.147 A 
ATOM      5  C   UNL     1       2.993   3.111 -22.681  0.00  0.00    +0.150 A 
ATOM      6  N   UNL     1       2.935   1.825 -22.504  0.00  0.00    -0.219 NA
ATOM      7  C   UNL     1       1.817   1.191 -22.697  0.00  0.00    +0.225 A 
ATOM      8  N   UNL     1       0.755   1.845 -23.066  0.00  0.00    -0.216 NA
ATOM      9  N   UNL     1       4.111   3.745 -22.488  0.00  0.00    -0.323 N 
ATOM     10  H   UNL     1       4.155   4.720 -22.622  0.00  0.00    +0.148 HD
ATOM     11  C   UNL     1       0.812   3.132 -23.243  0.00  0.00    +0.167 A 
ENDROOT
BRANCH   1  14
ATOM     12  C4* UNL     1      -3.403   3.453 -23.692  0.00  0.00    +0.177 C 
ATOM     13  O4* UNL     1      -2.320   3.761 -23.042  0.00  0.00    -0.346 OA
ATOM     14  C1* UNL     1      -1.328   3.744 -23.882  0.00  0.00    +0.253 C 
ATOM     15  C2* UNL     1      -1.798   3.426 -25.052  0.00  0.00    +0.195 C 
ATOM     16  C3* UNL     1      -3.081   3.245 -24.934  0.00  0.00    +0.178 C 
BRANCH  15  17
ATOM     17  O2* UNL     1      -1.107   3.308 -26.146  0.00  0.00    -0.385 OA
ATOM     18  H2* UNL     1      -1.426   2.543 -26.649  0.00  0.00    +0.210 HD
ENDBRANCH  15  17
BRANCH  16  19
ATOM     19  O3* UNL     1      -3.896   2.916 -25.891  0.00  0.00    -0.386 OA
ATOM     20  H3* UNL     1      -4.774   2.736 -25.518  0.00  0.00    +0.210 HD
ENDBRANCH  16  19
BRANCH  12  21
ATOM     21  C5* UNL     1      -4.598   3.367 -23.188  0.00  0.00    +0.190 C 
BRANCH  21  22
ATOM     22  O5* UNL     1      -5.559   4.101 -23.666  0.00  0.00    -0.392 OA
ATOM     23  H5* UNL     1      -5.760   3.819 -24.572  0.00  0.00    +0.210 HD
ENDBRANCH  21  22
ENDBRANCH  12  21
ENDBRANCH   1  14
BRANCH   9  24
ATOM     24  C   UNL     1       5.173   3.092 -22.119  0.00  0.00    +0.138 C 
BRANCH  24  25
ATOM     25  C   UNL     1       6.325   3.692 -22.080  0.00  0.00    -0.030 A 
ATOM     26  C   UNL     1       6.793   4.129 -20.949  0.00  0.00    +0.005 A 
ATOM     27  C   UNL     1       7.945   4.729 -20.910  0.00  0.00    +0.000 A 
ATOM     28  C   UNL     1       8.629   4.894 -22.003  0.00  0.00    +0.000 A 
ATOM     29  C   UNL     1       8.162   4.457 -23.135  0.00  0.00    +0.000 A 
ATOM     30  C   UNL     1       7.010   3.856 -23.174  0.00  0.00    +0.005 A 
ENDBRANCH  24  25
ENDBRANCH   9  24
TORSDOF 7
ENDMDL
MODEL 5
REMARK VINA RESULT:    -8.694      3.884      8.211
REMARK INTER + INTRA:         -11.943
REMARK INTER:                 -11.635
REMARK INTRA:                  -0.308
REMARK UNBOUND:                -0.453
REMARK  Name = ZINC000000580569
REMARK  7 active torsions:
REMARK  status: ('A' for Active; 'I' for Inactive)
REMARK    1  A    between atoms: O5*_1  and  C5*_2
REMARK    2  A    between atoms: C5*_2  and  C4*_3
REMARK    3  A    between atoms: C1*_5  and  N_6
REMARK    4  A    between atoms: N_11  and  C_12
REMARK    5  A    between atoms: C_12  and  C_13
REMARK    6  A    between atoms: C2*_23  and  O2*_24
REMARK    7  A    between atoms: C3*_25  and  O3*_26
REMARK                            x       y       z     vdW  Elec       q    Type
REMARK                         _______ _______ _______ _____ _____    ______ ____
ROOT
ATOM      1  N   UNL     1      -1.264   2.419 -22.910  0.00  0.00    -0.286 N 
ATOM      2  C   UNL     1      -0.885   1.455 -22.126  0.00  0.00    +0.203 A 
ATOM      3  N   UNL     1       0.406   1.338 -22.226  0.00  0.00    -0.231 NA
ATOM      4  C   UNL     1       0.825   2.232 -23.073  0.00  0.00    +0.147 A 
ATOM      5  C   UNL     1       2.014   2.523 -23.513  0.00  0.00    +0.150 A 
ATOM      6  N   UNL     1       2.169   3.482 -24.376  0.00  0.00    -0.219 NA
ATOM      7  C   UNL     1       1.138   4.151 -24.799  0.00  0.00    +0.225 A 
ATOM      8  N   UNL     1      -0.051   3.859 -24.359  0.00  0.00    -0.216 NA
ATOM      9  N   UNL     1       3.045   1.855 -23.090  0.00  0.00    -0.323 N 
ATOM     10  H   UNL     1       2.927   1.128 -22.436  0.00  0.00    +0.148 HD
ATOM     11  C   UNL     1      -0.206   2.900 -23.496  0.00  0.00    +0.167 A 
ENDROOT
BRANCH   1  14
ATOM     12  C4* UNL     1      -4.269   3.481 -23.986  0.00  0.00    +0.177 C 
ATOM     13  O4* UNL     1      -3.049   3.097 -24.221  0.00  0.00    -0.346 OA
ATOM     14  C1* UNL     1      -2.484   2.832 -23.080  0.00  0.00    +0.253 C 
ATOM     15  C2* UNL     1      -3.355   3.052 -22.141  0.00  0.00    +0.195 C 
ATOM     16  C3* UNL     1      -4.458   3.453 -22.701  0.00  0.00    +0.178 C 
BRANCH  15  17
ATOM     17  O2* UNL     1      -3.158   2.898 -20.865  0.00  0.00    -0.385 OA
ATOM     18  H2* UNL     1      -2.246   3.145 -20.647  0.00  0.00    +0.210 HD
ENDBRANCH  15  17
BRANCH  16  19
ATOM     19  O3* UNL     1      -5.557   3.771 -22.083  0.00  0.00    -0.386 OA
ATOM     20  H3* UNL     1      -5.353   4.380 -21.355  0.00  0.00    +0.210 HD
ENDBRANCH  16  19
BRANCH  12  21
ATOM     21  C5* UNL     1      -5.145   3.831 -24.880  0.00  0.00    +0.190 C 
BRANCH  21  22
ATOM     22  O5* UNL     1      -4.787   4.574 -25.885  0.00  0.00    -0.392 OA
ATOM     23  H5* UNL     1      -3.846   4.793 -25.805  0.00  0.00    +0.210 HD
ENDBRANCH  21  22
ENDBRANCH  12  21
ENDBRANCH   1  14
BRANCH   9  24
ATOM     24  C   UNL     1       4.233   2.146 -23.530  0.00  0.00    +0.138 C 
BRANCH  24  25
ATOM     25  C   UNL     1       5.092   2.729 -22.747  0.00  0.00    -0.030 A 
ATOM     26  C   UNL     1       5.194   2.360 -21.505  0.00  0.00    +0.005 A 
ATOM     27  C   UNL     1       6.052   2.942 -20.722  0.00  0.00    +0.000 A 
ATOM     28  C   UNL     1       6.809   3.894 -21.181  0.00  0.00    +0.000 A 
ATOM     29  C   UNL     1       6.707   4.264 -22.424  0.00  0.00    +0.000 A 
ATOM     30  C   UNL     1       5.849   3.682 -23.207  0.00  0.00    +0.005 A 
ENDBRANCH  24  25
ENDBRANCH   9  24
TORSDOF 7
ENDMDL
MODEL 6
REMARK VINA RESULT:    -8.376      1.486      2.035
REMARK INTER + INTRA:         -11.522
REMARK INTER:                 -11.026
REMARK INTRA:                  -0.496
REMARK UNBOUND:                -0.453
REMARK  Name = ZINC000000580569
REMARK  7 active torsions:
REMARK  status: ('A' for Active; 'I' for Inactive)
REMARK    1  A    between atoms: O5*_1  and  C5*_2
REMARK    2  A    between atoms: C5*_2  and  C4*_3
REMARK    3  A    between atoms: C1*_5  and  N_6
REMARK    4  A    between atoms: N_11  and  C_12
REMARK    5  A    between atoms: C_12  and  C_13
REMARK    6  A    between atoms: C2*_23  and  O2*_24
REMARK    7  A    between atoms: C3*_25  and  O3*_26
REMARK                            x       y       z     vdW  Elec       q    Type
REMARK                         _______ _______ _______ _____ _____    ______ ____
ROOT
ATOM      1  N   UNL     1       4.692   3.253 -22.801  0.00  0.00    -0.286 N 
ATOM      2  C   UNL     1       4.465   1.992 -23.018  0.00  0.00    +0.203 A 
ATOM      3  N   UNL     1       3.223   1.863 -23.383  0.00  0.00    -0.231 NA
ATOM      4  C   UNL     1       2.683   3.046 -23.391  0.00  0.00    +0.147 A 
ATOM      5  C   UNL     1       1.482   3.452 -23.680  0.00  0.00    +0.150 A 
ATOM      6  N   UNL     1       1.189   4.716 -23.609  0.00  0.00    -0.219 NA
ATOM      7  C   UNL     1       2.096   5.575 -23.249  0.00  0.00    +0.225 A 
ATOM      8  N   UNL     1       3.297   5.169 -22.961  0.00  0.00    -0.216 NA
ATOM      9  N   UNL     1       0.575   2.593 -24.040  0.00  0.00    -0.323 N 
ATOM     10  H   UNL     1       0.798   1.635 -24.093  0.00  0.00    +0.148 HD
ATOM     11  C   UNL     1       3.590   3.904 -23.032  0.00  0.00    +0.167 A 
ENDROOT
BRANCH   1  14
ATOM     12  C4* UNL     1       7.640   4.828 -22.427  0.00  0.00    +0.177 C 
ATOM     13  O4* UNL     1       6.617   4.492 -23.155  0.00  0.00    -0.346 OA
ATOM     14  C1* UNL     1       5.821   3.772 -22.420  0.00  0.00    +0.253 C 
ATOM     15  C2* UNL     1       6.353   3.663 -21.240  0.00  0.00    +0.195 C 
ATOM     16  C3* UNL     1       7.478   4.316 -21.243  0.00  0.00    +0.178 C 
BRANCH  15  17
ATOM     17  O2* UNL     1       5.849   3.015 -20.232  0.00  0.00    -0.385 OA
ATOM     18  H2* UNL     1       6.405   3.152 -19.449  0.00  0.00    +0.210 HD
ENDBRANCH  15  17
BRANCH  16  19
ATOM     19  O3* UNL     1       8.295   4.435 -20.240  0.00  0.00    -0.386 OA
ATOM     20  H3* UNL     1       9.093   4.907 -20.528  0.00  0.00    +0.210 HD
ENDBRANCH  16  19
BRANCH  12  21
ATOM     21  C5* UNL     1       8.649   5.550 -22.815  0.00  0.00    +0.190 C 
BRANCH  21  22
ATOM     22  O5* UNL     1       8.575   6.231 -23.920  0.00  0.00    -0.392 OA
ATOM     23  H5* UNL     1       7.928   6.946 -23.816  0.00  0.00    +0.210 HD
ENDBRANCH  21  22
ENDBRANCH  12  21
ENDBRANCH   1  14
BRANCH   9  24
ATOM     24  C   UNL     1      -0.626   2.998 -24.328  0.00  0.00    +0.138 C 
BRANCH  24  25
ATOM     25  C   UNL     1      -1.577   2.890 -23.449  0.00  0.00    -0.030 A 
ATOM     26  C   UNL     1      -1.356   2.277 -22.324  0.00  0.00    +0.005 A 
ATOM     27  C   UNL     1      -2.308   2.169 -21.445  0.00  0.00    +0.000 A 
ATOM     28  C   UNL     1      -3.481   2.673 -21.691  0.00  0.00    +0.000 A 
ATOM     29  C   UNL     1      -3.702   3.286 -22.816  0.00  0.00    +0.000 A 
ATOM     30  C   UNL     1      -2.751   3.394 -23.696  0.00  0.00    +0.005 A 
ENDBRANCH  24  25
ENDBRANCH   9  24
TORSDOF 7
ENDMDL
MODEL 7
REMARK VINA RESULT:    -7.933      3.698      8.609
REMARK INTER + INTRA:         -10.937
REMARK INTER:                 -10.203
REMARK INTRA:                  -0.734
REMARK UNBOUND:                -0.453
REMARK  Name = ZINC000000580569
REMARK  7 active torsions:
REMARK  status: ('A' for Active; 'I' for Inactive)
REMARK    1  A    between atoms: O5*_1  and  C5*_2
REMARK    2  A    between atoms: C5*_2  and  C4*_3
REMARK    3  A    between atoms: C1*_5  and  N_6
REMARK    4  A    between atoms: N_11  and  C_12
REMARK    5  A    between atoms: C_12  and  C_13
REMARK    6  A    between atoms: C2*_23  and  O2*_24
REMARK    7  A    between atoms: C3*_25  and  O3*_26
REMARK                            x       y       z     vdW  Elec       q    Type
REMARK                         _______ _______ _______ _____ _____    ______ ____
ROOT
ATOM      1  N   UNL     1       0.187   4.118 -24.028  0.00  0.00    -0.286 N 
ATOM      2  C   UNL     1       0.613   5.159 -23.377  0.00  0.00    +0.203 A 
ATOM      3  N   UNL     1       1.882   4.996 -23.142  0.00  0.00    -0.231 NA
ATOM      4  C   UNL     1       2.239   3.853 -23.648  0.00  0.00    +0.147 A 
ATOM      5  C   UNL     1       3.383   3.235 -23.680  0.00  0.00    +0.150 A 
ATOM      6  N   UNL     1       3.480   2.076 -24.261  0.00  0.00    -0.219 NA
ATOM      7  C   UNL     1       2.433   1.534 -24.808  0.00  0.00    +0.225 A 
ATOM      8  N   UNL     1       1.289   2.151 -24.775  0.00  0.00    -0.216 NA
ATOM      9  N   UNL     1       4.430   3.777 -23.133  0.00  0.00    -0.323 N 
ATOM     10  H   UNL     1       4.357   4.656 -22.693  0.00  0.00    +0.148 HD
ATOM     11  C   UNL     1       1.193   3.310 -24.195  0.00  0.00    +0.167 A 
ENDROOT
BRANCH   1  14
ATOM     12  C4* UNL     1      -2.686   3.562 -25.686  0.00  0.00    +0.177 C 
ATOM     13  O4* UNL     1      -1.396   3.721 -25.672  0.00  0.00    -0.346 OA
ATOM     14  C1* UNL     1      -1.029   3.919 -24.440  0.00  0.00    +0.253 C 
ATOM     15  C2* UNL     1      -2.092   3.882 -23.693  0.00  0.00    +0.195 C 
ATOM     16  C3* UNL     1      -3.117   3.662 -24.463  0.00  0.00    +0.178 C 
BRANCH  15  17
ATOM     17  O2* UNL     1      -2.126   4.039 -22.403  0.00  0.00    -0.385 OA
ATOM     18  H2* UNL     1      -1.556   4.782 -22.153  0.00  0.00    +0.210 HD
ENDBRANCH  15  17
BRANCH  16  19
ATOM     19  O3* UNL     1      -4.354   3.559 -24.078  0.00  0.00    -0.386 OA
ATOM     20  H3* UNL     1      -4.938   3.616 -24.851  0.00  0.00    +0.210 HD
ENDBRANCH  16  19
BRANCH  12  21
ATOM     21  C5* UNL     1      -3.417   3.342 -26.738  0.00  0.00    +0.190 C 
BRANCH  21  22
ATOM     22  O5* UNL     1      -4.530   2.679 -26.629  0.00  0.00    -0.392 OA
ATOM     23  H5* UNL     1      -4.435   1.999 -25.944  0.00  0.00    +0.210 HD
ENDBRANCH  21  22
ENDBRANCH  12  21
ENDBRANCH   1  14
BRANCH   9  24
ATOM     24  C   UNL     1       5.574   3.160 -23.165  0.00  0.00    +0.138 C 
BRANCH  24  25
ATOM     25  C   UNL     1       6.647   3.800 -23.524  0.00  0.00    -0.030 A 
ATOM     26  C   UNL     1       7.608   3.168 -24.131  0.00  0.00    +0.005 A 
ATOM     27  C   UNL     1       8.681   3.808 -24.490  0.00  0.00    +0.000 A 
ATOM     28  C   UNL     1       8.794   5.079 -24.242  0.00  0.00    +0.000 A 
ATOM     29  C   UNL     1       7.834   5.711 -23.635  0.00  0.00    +0.000 A 
ATOM     30  C   UNL     1       6.760   5.072 -23.276  0.00  0.00    +0.005 A 
ENDBRANCH  24  25
ENDBRANCH   9  24
TORSDOF 7
ENDMDL
MODEL 8
REMARK VINA RESULT:    -7.872      3.441      8.206
REMARK INTER + INTRA:         -10.856
REMARK INTER:                 -10.175
REMARK INTRA:                  -0.681
REMARK UNBOUND:                -0.453
REMARK  Name = ZINC000000580569
REMARK  7 active torsions:
REMARK  status: ('A' for Active; 'I' for Inactive)
REMARK    1  A    between atoms: O5*_1  and  C5*_2
REMARK    2  A    between atoms: C5*_2  and  C4*_3
REMARK    3  A    between atoms: C1*_5  and  N_6
REMARK    4  A    between atoms: N_11  and  C_12
REMARK    5  A    between atoms: C_12  and  C_13
REMARK    6  A    between atoms: C2*_23  and  O2*_24
REMARK    7  A    between atoms: C3*_25  and  O3*_26
REMARK                            x       y       z     vdW  Elec       q    Type
REMARK                         _______ _______ _______ _____ _____    ______ ____
ROOT
ATOM      1  N   UNL     1       0.682   2.540 -22.607  0.00  0.00    -0.286 N 
ATOM      2  C   UNL     1       1.388   1.458 -22.462  0.00  0.00    +0.203 A 
ATOM      3  N   UNL     1       2.641   1.773 -22.607  0.00  0.00    -0.231 NA
ATOM      4  C   UNL     1       2.709   3.050 -22.842  0.00  0.00    +0.147 A 
ATOM      5  C   UNL     1       3.717   3.844 -23.055  0.00  0.00    +0.150 A 
ATOM      6  N   UNL     1       3.515   5.110 -23.269  0.00  0.00    -0.219 NA
ATOM      7  C   UNL     1       2.304   5.583 -23.268  0.00  0.00    +0.225 A 
ATOM      8  N   UNL     1       1.296   4.790 -23.054  0.00  0.00    -0.216 NA
ATOM      9  N   UNL     1       4.928   3.370 -23.056  0.00  0.00    -0.323 N 
ATOM     10  H   UNL     1       5.081   2.410 -22.894  0.00  0.00    +0.148 HD
ATOM     11  C   UNL     1       1.499   3.524 -22.841  0.00  0.00    +0.167 A 
ENDROOT
BRANCH   1  14
ATOM     12  C4* UNL     1      -2.568   2.749 -21.763  0.00  0.00    +0.177 C 
ATOM     13  O4* UNL     1      -1.312   2.666 -21.435  0.00  0.00    -0.346 OA
ATOM     14  C1* UNL     1      -0.613   2.624 -22.530  0.00  0.00    +0.253 C 
ATOM     15  C2* UNL     1      -1.436   2.679 -23.534  0.00  0.00    +0.195 C 
ATOM     16  C3* UNL     1      -2.645   2.757 -23.060  0.00  0.00    +0.178 C 
BRANCH  15  17
ATOM     17  O2* UNL     1      -1.109   2.661 -24.792  0.00  0.00    -0.385 OA
ATOM     18  H2* UNL     1      -0.836   1.765 -25.043  0.00  0.00    +0.210 HD
ENDBRANCH  15  17
BRANCH  16  19
ATOM     19  O3* UNL     1      -3.737   2.829 -23.761  0.00  0.00    -0.386 OA
ATOM     20  H3* UNL     1      -3.777   3.690 -24.207  0.00  0.00    +0.210 HD
ENDBRANCH  16  19
BRANCH  12  21
ATOM     21  C5* UNL     1      -3.570   2.812 -20.938  0.00  0.00    +0.190 C 
BRANCH  21  22
ATOM     22  O5* UNL     1      -4.727   2.331 -21.283  0.00  0.00    -0.392 OA
ATOM     23  H5* UNL     1      -4.614   1.724 -22.031  0.00  0.00    +0.210 HD
ENDBRANCH  21  22
ENDBRANCH  12  21
ENDBRANCH   1  14
BRANCH   9  24
ATOM     24  C   UNL     1       5.936   4.162 -23.269  0.00  0.00    +0.138 C 
BRANCH  24  25
ATOM     25  C   UNL     1       6.508   4.769 -22.272  0.00  0.00    -0.030 A 
ATOM     26  C   UNL     1       6.989   4.079 -21.281  0.00  0.00    +0.005 A 
ATOM     27  C   UNL     1       7.562   4.686 -20.284  0.00  0.00    +0.000 A 
ATOM     28  C   UNL     1       7.653   5.983 -20.278  0.00  0.00    +0.000 A 
ATOM     29  C   UNL     1       7.172   6.673 -21.270  0.00  0.00    +0.000 A 
ATOM     30  C   UNL     1       6.600   6.066 -22.267  0.00  0.00    +0.005 A 
ENDBRANCH  24  25
ENDBRANCH   9  24
TORSDOF 7
ENDMDL
MODEL 9
REMARK VINA RESULT:    -7.541      2.279      3.069
REMARK INTER + INTRA:         -10.419
REMARK INTER:                  -9.966
REMARK INTRA:                  -0.453
REMARK UNBOUND:                -0.453
REMARK  Name = ZINC000000580569
REMARK  7 active torsions:
REMARK  status: ('A' for Active; 'I' for Inactive)
REMARK    1  A    between atoms: O5*_1  and  C5*_2
REMARK    2  A    between atoms: C5*_2  and  C4*_3
REMARK    3  A    between atoms: C1*_5  and  N_6
REMARK    4  A    between atoms: N_11  and  C_12
REMARK    5  A    between atoms: C_12  and  C_13
REMARK    6  A    between atoms: C2*_23  and  O2*_24
REMARK    7  A    between atoms: C3*_25  and  O3*_26
REMARK                            x       y       z     vdW  Elec       q    Type
REMARK                         _______ _______ _______ _____ _____    ______ ____
ROOT
ATOM      1  N   UNL     1       5.564   4.162 -22.928  0.00  0.00    -0.286 N 
ATOM      2  C   UNL     1       5.607   2.955 -23.408  0.00  0.00    +0.203 A 
ATOM      3  N   UNL     1       4.409   2.635 -23.800  0.00  0.00    -0.231 NA
ATOM      4  C   UNL     1       3.626   3.645 -23.562  0.00  0.00    +0.147 A 
ATOM      5  C   UNL     1       2.354   3.828 -23.766  0.00  0.00    +0.150 A 
ATOM      6  N   UNL     1       1.798   4.954 -23.432  0.00  0.00    -0.219 NA
ATOM      7  C   UNL     1       2.512   5.898 -22.893  0.00  0.00    +0.225 A 
ATOM      8  N   UNL     1       3.783   5.715 -22.689  0.00  0.00    -0.216 NA
ATOM      9  N   UNL     1       1.641   2.884 -24.304  0.00  0.00    -0.323 N 
ATOM     10  H   UNL     1       2.063   2.031 -24.558  0.00  0.00    +0.148 HD
ATOM     11  C   UNL     1       4.340   4.589 -23.023  0.00  0.00    +0.167 A 
ENDROOT
BRANCH   1  14
ATOM     12  C4* UNL     1       8.177   6.169 -22.250  0.00  0.00    +0.177 C 
ATOM     13  O4* UNL     1       7.260   5.735 -23.062  0.00  0.00    -0.346 OA
ATOM     14  C1* UNL     1       6.569   4.826 -22.439  0.00  0.00    +0.253 C 
ATOM     15  C2* UNL     1       7.059   4.699 -21.243  0.00  0.00    +0.195 C 
ATOM     16  C3* UNL     1       8.053   5.530 -21.125  0.00  0.00    +0.178 C 
BRANCH  15  17
ATOM     17  O2* UNL     1       6.631   3.886 -20.324  0.00  0.00    -0.385 OA
ATOM     18  H2* UNL     1       7.269   3.858 -19.594  0.00  0.00    +0.210 HD
ENDBRANCH  15  17
BRANCH  16  19
ATOM     19  O3* UNL     1       8.793   5.691 -20.069  0.00  0.00    -0.386 OA
ATOM     20  H3* UNL     1       9.509   6.315 -20.269  0.00  0.00    +0.210 HD
ENDBRANCH  16  19
BRANCH  12  21
ATOM     21  C5* UNL     1       9.062   7.083 -22.516  0.00  0.00    +0.190 C 
BRANCH  21  22
ATOM     22  O5* UNL     1       8.713   8.334 -22.557  0.00  0.00    -0.392 OA
ATOM     23  H5* UNL     1       8.629   8.675 -21.653  0.00  0.00    +0.210 HD
ENDBRANCH  21  22
ENDBRANCH  12  21
ENDBRANCH   1  14
BRANCH   9  24
ATOM     24  C   UNL     1       0.370   3.067 -24.509  0.00  0.00    +0.138 C 
BRANCH  24  25
ATOM     25  C   UNL     1      -0.483   2.823 -23.558  0.00  0.00    -0.030 A 
ATOM     26  C   UNL     1      -1.631   3.432 -23.543  0.00  0.00    +0.005 A 
ATOM     27  C   UNL     1      -2.483   3.189 -22.592  0.00  0.00    +0.000 A 
ATOM     28  C   UNL     1      -2.188   2.337 -21.657  0.00  0.00    +0.000 A 
ATOM     29  C   UNL     1      -1.039   1.727 -21.671  0.00  0.00    +0.000 A 
ATOM     30  C   UNL     1      -0.187   1.970 -22.622  0.00  0.00    +0.005 A 
ENDBRANCH  24  25
ENDBRANCH   9  24
TORSDOF 7
ENDMDL
