MODEL 1
REMARK VINA RESULT:    -9.717      0.000      0.000
REMARK INTER + INTRA:         -10.792
REMARK INTER:                 -12.116
REMARK INTRA:                   1.324
REMARK UNBOUND:                 1.765
REMARK  Name = ZINC000004175461
REMARK  11 active torsions:
REMARK  status: ('A' for Active; 'I' for Inactive)
REMARK    1  A    between atoms: C_1  and  O_2
REMARK    2  A    between atoms: O_2  and  C_3
REMARK    3  A    between atoms: C_6  and  C_7
REMARK    4  A    between atoms: C_7  and  C_8
REMARK    5  A    between atoms: C_9  and  C_10
REMARK    6  A    between atoms: C_9  and  C_11
REMARK    7  A    between atoms: C_16  and  C_17
REMARK    8  A    between atoms: C_20  and  O_21
REMARK    9  A    between atoms: C_24  and  O_25
REMARK   10  A    between atoms: C_28  and  C_29
REMARK   11  A    between atoms: C_28  and  C_30
REMARK                            x       y       z     vdW  Elec       q    Type
REMARK                         _______ _______ _______ _____ _____    ______ ____
ROOT
ATOM      1  C   UNL     1      -1.360   2.658 -21.901  0.00  0.00    +0.145 A 
ATOM      2  C   UNL     1      -2.653   2.777 -21.944  0.00  0.00    +0.059 A 
ATOM      3  C   UNL     1      -3.215   3.411 -22.931  0.00  0.00    +0.139 A 
ATOM      4  O   UNL     1      -4.508   3.529 -22.975  0.00  0.00    -0.481 OA
ATOM      5  C   UNL     1      -5.241   3.014 -22.032  0.00  0.00    +0.124 C 
ATOM      6  C   UNL     1      -4.679   2.380 -21.046  0.00  0.00    +0.020 C 
ATOM      7  C   UNL     1      -6.168   3.531 -22.781  0.00  0.00    +0.060 C 
ATOM      8  C   UNL     1      -6.295   2.678 -21.349  0.00  0.00    +0.060 C 
ATOM      9  C   UNL     1      -2.483   3.926 -23.874  0.00  0.00    +0.042 A 
ATOM     10  C   UNL     1      -1.188   3.807 -23.830  0.00  0.00    +0.153 A 
ATOM     11  O   UNL     1      -0.457   4.322 -24.773  0.00  0.00    -0.421 OA
ATOM     12  C   UNL     1       0.837   4.203 -24.729  0.00  0.00    +0.349 A 
ATOM     13  C   UNL     1       1.399   3.570 -23.743  0.00  0.00    +0.109 A 
ATOM     14  C   UNL     1       0.667   3.055 -22.800  0.00  0.00    +0.146 A 
ATOM     15  O   UNL     1       1.569   4.719 -25.672  0.00  0.00    -0.244 OA
ATOM     16  C   UNL     1      -3.385   2.262 -21.002  0.00  0.00    +0.015 C 
ATOM     17  C   UNL     1      -0.627   3.173 -22.844  0.00  0.00    +0.102 A 
ENDROOT
BRANCH  13  18
ATOM     18  C   UNL     1       2.693   3.451 -23.700  0.00  0.00    -0.007 A 
ATOM     19  C   UNL     1       3.421   4.434 -23.261  0.00  0.00    +0.012 A 
ATOM     20  C   UNL     1       4.715   4.315 -23.218  0.00  0.00    +0.046 A 
ATOM     21  C   UNL     1       5.280   3.214 -23.614  0.00  0.00    +0.117 A 
ATOM     22  C   UNL     1       4.552   2.231 -24.053  0.00  0.00    +0.046 A 
ATOM     23  C   UNL     1       3.258   2.349 -24.096  0.00  0.00    +0.012 A 
BRANCH  21  24
ATOM     24  O   UNL     1       6.574   3.095 -23.570  0.00  0.00    -0.507 OA
ATOM     25  H   UNL     1       7.058   3.490 -22.872  0.00  0.00    +0.292 HD
ENDBRANCH  21  24
ENDBRANCH  13  18
BRANCH  14  26
ATOM     26  O   UNL     1       1.229   2.421 -21.814  0.00  0.00    -0.505 OA
ATOM     27  H   UNL     1       0.763   1.741 -21.368  0.00  0.00    +0.292 HD
ENDBRANCH  14  26
BRANCH   1  29
ATOM     28  C   UNL     1      -0.681   0.730 -20.956  0.00  0.00    +0.277 C 
ATOM     29  O   UNL     1      -0.797   2.024 -20.914  0.00  0.00    -0.494 OA
ENDBRANCH   1  29
BRANCH   9  30
ATOM     30  C   UNL     1      -3.045   4.559 -24.861  0.00  0.00    +0.069 C 
BRANCH  30  31
ATOM     31  C   UNL     1      -2.795   4.206 -26.086  0.00  0.00    -0.023 C 
ATOM     32  C   UNL     1      -3.679   3.534 -26.762  0.00  0.00    -0.079 C 
ATOM     33  C   UNL     1      -4.813   3.215 -26.212  0.00  0.00    +0.038 C 
ATOM     34  C   UNL     1      -3.429   3.181 -27.988  0.00  0.00    +0.038 C 
ENDBRANCH  30  31
ENDBRANCH   9  30
TORSDOF 6
ENDMDL
MODEL 2
REMARK VINA RESULT:    -8.817      2.346      8.025
REMARK INTER + INTRA:          -9.630
REMARK INTER:                 -10.484
REMARK INTRA:                   0.855
REMARK UNBOUND:                 1.765
REMARK  Name = ZINC000004175461
REMARK  11 active torsions:
REMARK  status: ('A' for Active; 'I' for Inactive)
REMARK    1  A    between atoms: C_1  and  O_2
REMARK    2  A    between atoms: O_2  and  C_3
REMARK    3  A    between atoms: C_6  and  C_7
REMARK    4  A    between atoms: C_7  and  C_8
REMARK    5  A    between atoms: C_9  and  C_10
REMARK    6  A    between atoms: C_9  and  C_11
REMARK    7  A    between atoms: C_16  and  C_17
REMARK    8  A    between atoms: C_20  and  O_21
REMARK    9  A    between atoms: C_24  and  O_25
REMARK   10  A    between atoms: C_28  and  C_29
REMARK   11  A    between atoms: C_28  and  C_30
REMARK                            x       y       z     vdW  Elec       q    Type
REMARK                         _______ _______ _______ _____ _____    ______ ____
ROOT
ATOM      1  C   UNL     1       3.076   3.071 -24.143  0.00  0.00    +0.145 A 
ATOM      2  C   UNL     1       4.213   3.474 -23.661  0.00  0.00    +0.059 A 
ATOM      3  C   UNL     1       4.281   4.598 -23.009  0.00  0.00    +0.139 A 
ATOM      4  O   UNL     1       5.418   5.001 -22.526  0.00  0.00    -0.481 OA
ATOM      5  C   UNL     1       6.488   4.282 -22.694  0.00  0.00    +0.124 C 
ATOM      6  C   UNL     1       6.421   3.159 -23.346  0.00  0.00    +0.020 C 
ATOM      7  C   UNL     1       6.987   5.274 -22.020  0.00  0.00    +0.060 C 
ATOM      8  C   UNL     1       7.731   3.907 -22.628  0.00  0.00    +0.060 C 
ATOM      9  C   UNL     1       3.211   5.317 -22.840  0.00  0.00    +0.042 A 
ATOM     10  C   UNL     1       2.073   4.913 -23.324  0.00  0.00    +0.153 A 
ATOM     11  O   UNL     1       1.004   5.632 -23.155  0.00  0.00    -0.421 OA
ATOM     12  C   UNL     1      -0.133   5.228 -23.639  0.00  0.00    +0.349 A 
ATOM     13  C   UNL     1      -0.201   4.105 -24.290  0.00  0.00    +0.109 A 
ATOM     14  C   UNL     1       0.869   3.386 -24.459  0.00  0.00    +0.146 A 
ATOM     15  O   UNL     1      -1.203   5.948 -23.470  0.00  0.00    -0.244 OA
ATOM     16  C   UNL     1       5.283   2.755 -23.829  0.00  0.00    +0.015 C 
ATOM     17  C   UNL     1       2.006   3.790 -23.976  0.00  0.00    +0.102 A 
ENDROOT
BRANCH  13  18
ATOM     18  C   UNL     1      -1.339   3.702 -24.773  0.00  0.00    -0.007 A 
ATOM     19  C   UNL     1      -2.225   3.166 -23.988  0.00  0.00    +0.012 A 
ATOM     20  C   UNL     1      -3.362   2.763 -24.472  0.00  0.00    +0.046 A 
ATOM     21  C   UNL     1      -3.613   2.896 -25.740  0.00  0.00    +0.117 A 
ATOM     22  C   UNL     1      -2.727   3.432 -26.525  0.00  0.00    +0.046 A 
ATOM     23  C   UNL     1      -1.589   3.835 -26.042  0.00  0.00    +0.012 A 
BRANCH  21  24
ATOM     24  O   UNL     1      -4.751   2.493 -26.223  0.00  0.00    -0.507 OA
ATOM     25  H   UNL     1      -5.138   2.942 -26.948  0.00  0.00    +0.292 HD
ENDBRANCH  21  24
ENDBRANCH  13  18
BRANCH  14  26
ATOM     26  O   UNL     1       0.801   2.263 -25.110  0.00  0.00    -0.505 OA
ATOM     27  H   UNL     1      -0.030   1.855 -25.256  0.00  0.00    +0.292 HD
ENDBRANCH  14  26
BRANCH   1  29
ATOM     28  C   UNL     1       3.229   0.824 -24.179  0.00  0.00    +0.277 C 
ATOM     29  O   UNL     1       3.009   1.947 -24.796  0.00  0.00    -0.494 OA
ENDBRANCH   1  29
BRANCH   9  30
ATOM     30  C   UNL     1       3.279   6.440 -22.189  0.00  0.00    +0.069 C 
BRANCH  30  31
ATOM     31  C   UNL     1       4.037   7.401 -22.626  0.00  0.00    -0.023 C 
ATOM     32  C   UNL     1       4.465   8.315 -21.808  0.00  0.00    -0.079 C 
ATOM     33  C   UNL     1       4.136   8.269 -20.551  0.00  0.00    +0.038 C 
ATOM     34  C   UNL     1       5.223   9.277 -22.246  0.00  0.00    +0.038 C 
ENDBRANCH  30  31
ENDBRANCH   9  30
TORSDOF 6
ENDMDL
MODEL 3
REMARK VINA RESULT:    -8.368      1.955      8.263
REMARK INTER + INTRA:          -9.049
REMARK INTER:                 -10.867
REMARK INTRA:                   1.818
REMARK UNBOUND:                 1.765
REMARK  Name = ZINC000004175461
REMARK  11 active torsions:
REMARK  status: ('A' for Active; 'I' for Inactive)
REMARK    1  A    between atoms: C_1  and  O_2
REMARK    2  A    between atoms: O_2  and  C_3
REMARK    3  A    between atoms: C_6  and  C_7
REMARK    4  A    between atoms: C_7  and  C_8
REMARK    5  A    between atoms: C_9  and  C_10
REMARK    6  A    between atoms: C_9  and  C_11
REMARK    7  A    between atoms: C_16  and  C_17
REMARK    8  A    between atoms: C_20  and  O_21
REMARK    9  A    between atoms: C_24  and  O_25
REMARK   10  A    between atoms: C_28  and  C_29
REMARK   11  A    between atoms: C_28  and  C_30
REMARK                            x       y       z     vdW  Elec       q    Type
REMARK                         _______ _______ _______ _____ _____    ______ ____
ROOT
ATOM      1  C   UNL     1       2.876   4.760 -23.121  0.00  0.00    +0.145 A 
ATOM      2  C   UNL     1       4.149   4.500 -23.143  0.00  0.00    +0.059 A 
ATOM      3  C   UNL     1       4.561   3.266 -23.113  0.00  0.00    +0.139 A 
ATOM      4  O   UNL     1       5.834   3.006 -23.135  0.00  0.00    -0.481 OA
ATOM      5  C   UNL     1       6.696   3.978 -23.187  0.00  0.00    +0.124 C 
ATOM      6  C   UNL     1       6.284   5.211 -23.217  0.00  0.00    +0.020 C 
ATOM      7  C   UNL     1       7.504   2.960 -23.173  0.00  0.00    +0.060 C 
ATOM      8  C   UNL     1       7.838   4.597 -23.234  0.00  0.00    +0.060 C 
ATOM      9  C   UNL     1       3.699   2.294 -23.062  0.00  0.00    +0.042 A 
ATOM     10  C   UNL     1       2.425   2.556 -23.040  0.00  0.00    +0.153 A 
ATOM     11  O   UNL     1       1.564   1.584 -22.988  0.00  0.00    -0.421 OA
ATOM     12  C   UNL     1       0.291   1.845 -22.966  0.00  0.00    +0.349 A 
ATOM     13  C   UNL     1      -0.121   3.077 -22.996  0.00  0.00    +0.109 A 
ATOM     14  C   UNL     1       0.740   4.049 -23.048  0.00  0.00    +0.146 A 
ATOM     15  O   UNL     1      -0.572   0.872 -22.915  0.00  0.00    -0.244 OA
ATOM     16  C   UNL     1       5.011   5.471 -23.195  0.00  0.00    +0.015 C 
ATOM     17  C   UNL     1       2.013   3.789 -23.069  0.00  0.00    +0.102 A 
ENDROOT
BRANCH  13  18
ATOM     18  C   UNL     1      -1.395   3.338 -22.974  0.00  0.00    -0.007 A 
ATOM     19  C   UNL     1      -2.021   3.424 -21.838  0.00  0.00    +0.012 A 
ATOM     20  C   UNL     1      -3.295   3.684 -21.817  0.00  0.00    +0.046 A 
ATOM     21  C   UNL     1      -3.941   3.858 -22.931  0.00  0.00    +0.117 A 
ATOM     22  C   UNL     1      -3.315   3.773 -24.067  0.00  0.00    +0.046 A 
ATOM     23  C   UNL     1      -2.042   3.512 -24.088  0.00  0.00    +0.012 A 
BRANCH  21  24
ATOM     24  O   UNL     1      -5.215   4.119 -22.909  0.00  0.00    -0.507 OA
ATOM     25  H   UNL     1      -5.533   4.868 -22.445  0.00  0.00    +0.292 HD
ENDBRANCH  21  24
ENDBRANCH  13  18
BRANCH  14  26
ATOM     26  O   UNL     1       0.329   5.282 -23.077  0.00  0.00    -0.505 OA
ATOM     27  H   UNL     1       0.819   5.929 -23.546  0.00  0.00    +0.292 HD
ENDBRANCH  14  26
BRANCH   1  29
ATOM     28  C   UNL     1       3.090   6.904 -22.465  0.00  0.00    +0.277 C 
ATOM     29  O   UNL     1       2.464   5.994 -23.151  0.00  0.00    -0.494 OA
ENDBRANCH   1  29
BRANCH   9  30
ATOM     30  C   UNL     1       4.111   1.062 -23.032  0.00  0.00    +0.069 C 
BRANCH  30  31
ATOM     31  C   UNL     1       5.046   0.709 -22.202  0.00  0.00    -0.023 C 
ATOM     32  C   UNL     1       4.738   0.341 -20.993  0.00  0.00    -0.079 C 
ATOM     33  C   UNL     1       3.494   0.326 -20.616  0.00  0.00    +0.038 C 
ATOM     34  C   UNL     1       5.674  -0.012 -20.163  0.00  0.00    +0.038 C 
ENDBRANCH  30  31
ENDBRANCH   9  30
TORSDOF 6
ENDMDL
MODEL 4
REMARK VINA RESULT:    -8.315      1.893      7.799
REMARK INTER + INTRA:          -8.980
REMARK INTER:                 -10.063
REMARK INTRA:                   1.083
REMARK UNBOUND:                 1.765
REMARK  Name = ZINC000004175461
REMARK  11 active torsions:
REMARK  status: ('A' for Active; 'I' for Inactive)
REMARK    1  A    between atoms: C_1  and  O_2
REMARK    2  A    between atoms: O_2  and  C_3
REMARK    3  A    between atoms: C_6  and  C_7
REMARK    4  A    between atoms: C_7  and  C_8
REMARK    5  A    between atoms: C_9  and  C_10
REMARK    6  A    between atoms: C_9  and  C_11
REMARK    7  A    between atoms: C_16  and  C_17
REMARK    8  A    between atoms: C_20  and  O_21
REMARK    9  A    between atoms: C_24  and  O_25
REMARK   10  A    between atoms: C_28  and  C_29
REMARK   11  A    between atoms: C_28  and  C_30
REMARK                            x       y       z     vdW  Elec       q    Type
REMARK                         _______ _______ _______ _____ _____    ______ ____
ROOT
ATOM      1  C   UNL     1       2.269   2.172 -22.487  0.00  0.00    +0.145 A 
ATOM      2  C   UNL     1       3.541   2.406 -22.617  0.00  0.00    +0.059 A 
ATOM      3  C   UNL     1       3.956   3.609 -22.888  0.00  0.00    +0.139 A 
ATOM      4  O   UNL     1       5.227   3.844 -23.018  0.00  0.00    -0.481 OA
ATOM      5  C   UNL     1       6.085   2.877 -22.878  0.00  0.00    +0.124 C 
ATOM      6  C   UNL     1       5.670   1.675 -22.607  0.00  0.00    +0.020 C 
ATOM      7  C   UNL     1       6.895   3.861 -23.130  0.00  0.00    +0.060 C 
ATOM      8  C   UNL     1       7.224   2.251 -22.825  0.00  0.00    +0.060 C 
ATOM      9  C   UNL     1       3.099   4.576 -23.028  0.00  0.00    +0.042 A 
ATOM     10  C   UNL     1       1.826   4.341 -22.897  0.00  0.00    +0.153 A 
ATOM     11  O   UNL     1       0.969   5.308 -23.038  0.00  0.00    -0.421 OA
ATOM     12  C   UNL     1      -0.303   5.073 -22.907  0.00  0.00    +0.349 A 
ATOM     13  C   UNL     1      -0.717   3.871 -22.637  0.00  0.00    +0.109 A 
ATOM     14  C   UNL     1       0.140   2.904 -22.497  0.00  0.00    +0.146 A 
ATOM     15  O   UNL     1      -1.160   6.041 -23.047  0.00  0.00    -0.244 OA
ATOM     16  C   UNL     1       4.398   1.440 -22.477  0.00  0.00    +0.015 C 
ATOM     17  C   UNL     1       1.411   3.139 -22.627  0.00  0.00    +0.102 A 
ENDROOT
BRANCH  13  18
ATOM     18  C   UNL     1      -1.990   3.637 -22.506  0.00  0.00    -0.007 A 
ATOM     19  C   UNL     1      -2.527   3.606 -21.323  0.00  0.00    +0.012 A 
ATOM     20  C   UNL     1      -3.799   3.371 -21.194  0.00  0.00    +0.046 A 
ATOM     21  C   UNL     1      -4.533   3.168 -22.247  0.00  0.00    +0.117 A 
ATOM     22  C   UNL     1      -3.996   3.199 -23.430  0.00  0.00    +0.046 A 
ATOM     23  C   UNL     1      -2.724   3.434 -23.560  0.00  0.00    +0.012 A 
BRANCH  21  24
ATOM     24  O   UNL     1      -5.806   2.933 -22.117  0.00  0.00    -0.507 OA
ATOM     25  H   UNL     1      -6.426   3.622 -22.256  0.00  0.00    +0.292 HD
ENDBRANCH  21  24
ENDBRANCH  13  18
BRANCH  14  26
ATOM     26  O   UNL     1      -0.275   1.702 -22.226  0.00  0.00    -0.505 OA
ATOM     27  H   UNL     1      -0.831   1.251 -22.831  0.00  0.00    +0.292 HD
ENDBRANCH  14  26
BRANCH   1  29
ATOM     28  C   UNL     1       2.300  -0.042 -22.902  0.00  0.00    +0.277 C 
ATOM     29  O   UNL     1       1.854   0.969 -22.216  0.00  0.00    -0.494 OA
ENDBRANCH   1  29
BRANCH   9  30
ATOM     30  C   UNL     1       3.513   5.778 -23.298  0.00  0.00    +0.069 C 
BRANCH  30  31
ATOM     31  C   UNL     1       3.331   6.737 -22.440  0.00  0.00    -0.023 C 
ATOM     32  C   UNL     1       4.355   7.339 -21.911  0.00  0.00    -0.079 C 
ATOM     33  C   UNL     1       5.560   6.983 -22.240  0.00  0.00    +0.038 C 
ATOM     34  C   UNL     1       4.172   8.299 -21.052  0.00  0.00    +0.038 C 
ENDBRANCH  30  31
ENDBRANCH   9  30
TORSDOF 6
ENDMDL
