MODEL 1
REMARK VINA RESULT:    -9.993      0.000      0.000
REMARK INTER + INTRA:          -9.993
REMARK INTER:                  -9.993
REMARK INTRA:                   0.000
REMARK UNBOUND:                 0.000
REMARK  Name = ZINC000072182677
REMARK  3 active torsions:
REMARK  status: ('A' for Active; 'I' for Inactive)
REMARK    1  A    between atoms: C_1  and  C_2
REMARK    2  A    between atoms: C_10  and  C_11
REMARK    3  A    between atoms: C_16  and  C_17
REMARK                            x       y       z     vdW  Elec       q    Type
REMARK                         _______ _______ _______ _____ _____    ______ ____
ROOT
ATOM      1  C   UNL     1      -0.706   2.001 -21.264  0.00  0.00    +0.019 C 
ATOM      2  C   UNL     1      -0.556   2.313 -22.516  0.00  0.00    +0.101 C 
ATOM      3  C   UNL     1       0.550   2.239 -23.195  0.00  0.00    +0.311 C 
ATOM      4  O   UNL     1       0.304   2.635 -24.408  0.00  0.00    -0.458 OA
ATOM      5  C   UNL     1      -0.954   2.954 -24.480  0.00  0.00    +0.212 C 
ATOM      6  C   UNL     1      -1.685   3.400 -25.459  0.00  0.00    +0.191 C 
ATOM      7  O   UNL     1      -2.416   3.845 -26.438  0.00  0.00    -0.361 OA
ATOM      8  C   UNL     1      -2.947   3.646 -25.268  0.00  0.00    +0.097 C 
ATOM      9  C   UNL     1      -4.097   4.046 -25.722  0.00  0.00    +0.044 C 
ATOM     10  C   UNL     1      -3.478   3.448 -24.098  0.00  0.00    +0.040 C 
ATOM     11  C   UNL     1      -4.741   3.695 -23.908  0.00  0.00    +0.037 C 
ATOM     12  C   UNL     1      -5.272   3.496 -22.738  0.00  0.00    +0.151 C 
ATOM     13  O   UNL     1      -5.804   3.297 -21.568  0.00  0.00    -0.365 OA
ATOM     14  C   UNL     1      -4.542   3.050 -21.759  0.00  0.00    +0.093 C 
ATOM     15  C   UNL     1      -4.427   2.678 -20.519  0.00  0.00    +0.044 C 
ATOM     16  C   UNL     1      -3.280   2.803 -21.950  0.00  0.00    +0.038 C 
ATOM     17  C   UNL     1      -2.748   3.002 -23.120  0.00  0.00    +0.011 C 
ATOM     18  O   UNL     1       1.700   1.839 -22.741  0.00  0.00    -0.251 OA
ATOM     19  C   UNL     1      -1.487   2.755 -23.310  0.00  0.00    +0.046 C 
ENDROOT
TORSDOF 0
ENDMDL
MODEL 2
REMARK VINA RESULT:    -9.581      0.870      4.280
REMARK INTER + INTRA:          -9.581
REMARK INTER:                  -9.581
REMARK INTRA:                   0.000
REMARK UNBOUND:                 0.000
REMARK  Name = ZINC000072182677
REMARK  3 active torsions:
REMARK  status: ('A' for Active; 'I' for Inactive)
REMARK    1  A    between atoms: C_1  and  C_2
REMARK    2  A    between atoms: C_10  and  C_11
REMARK    3  A    between atoms: C_16  and  C_17
REMARK                            x       y       z     vdW  Elec       q    Type
REMARK                         _______ _______ _______ _____ _____    ______ ____
ROOT
ATOM      1  C   UNL     1      -4.052   2.290 -20.662  0.00  0.00    +0.019 C 
ATOM      2  C   UNL     1      -4.375   2.801 -21.813  0.00  0.00    +0.101 C 
ATOM      3  C   UNL     1      -5.563   3.187 -22.172  0.00  0.00    +0.311 C 
ATOM      4  O   UNL     1      -5.488   3.639 -23.387  0.00  0.00    -0.458 OA
ATOM      5  C   UNL     1      -4.254   3.533 -23.781  0.00  0.00    +0.212 C 
ATOM      6  C   UNL     1      -3.668   3.842 -24.900  0.00  0.00    +0.191 C 
ATOM      7  O   UNL     1      -3.081   4.150 -26.018  0.00  0.00    -0.361 OA
ATOM      8  C   UNL     1      -2.393   3.632 -25.045  0.00  0.00    +0.097 C 
ATOM      9  C   UNL     1      -1.318   3.688 -25.774  0.00  0.00    +0.044 C 
ATOM     10  C   UNL     1      -1.705   3.113 -24.071  0.00  0.00    +0.040 C 
ATOM     11  C   UNL     1      -0.430   2.903 -24.217  0.00  0.00    +0.037 C 
ATOM     12  C   UNL     1       0.259   2.385 -23.244  0.00  0.00    +0.151 C 
ATOM     13  O   UNL     1       0.947   1.866 -22.270  0.00  0.00    -0.365 OA
ATOM     14  C   UNL     1      -0.328   2.076 -22.125  0.00  0.00    +0.093 C 
ATOM     15  C   UNL     1      -0.269   1.599 -20.917  0.00  0.00    +0.044 C 
ATOM     16  C   UNL     1      -1.603   2.286 -21.979  0.00  0.00    +0.038 C 
ATOM     17  C   UNL     1      -2.291   2.805 -22.953  0.00  0.00    +0.011 C 
ATOM     18  O   UNL     1      -6.638   3.130 -21.442  0.00  0.00    -0.251 OA
ATOM     19  C   UNL     1      -3.565   3.015 -22.808  0.00  0.00    +0.046 C 
ENDROOT
TORSDOF 0
ENDMDL
MODEL 3
REMARK VINA RESULT:    -9.570      1.239      3.432
REMARK INTER + INTRA:          -9.570
REMARK INTER:                  -9.570
REMARK INTRA:                   0.000
REMARK UNBOUND:                 0.000
REMARK  Name = ZINC000072182677
REMARK  3 active torsions:
REMARK  status: ('A' for Active; 'I' for Inactive)
REMARK    1  A    between atoms: C_1  and  C_2
REMARK    2  A    between atoms: C_10  and  C_11
REMARK    3  A    between atoms: C_16  and  C_17
REMARK                            x       y       z     vdW  Elec       q    Type
REMARK                         _______ _______ _______ _____ _____    ______ ____
ROOT
ATOM      1  C   UNL     1       0.125   2.628 -24.377  0.00  0.00    +0.019 C 
ATOM      2  C   UNL     1      -0.390   2.507 -23.190  0.00  0.00    +0.101 C 
ATOM      3  C   UNL     1       0.245   2.142 -22.115  0.00  0.00    +0.311 C 
ATOM      4  O   UNL     1      -0.603   2.139 -21.130  0.00  0.00    -0.458 OA
ATOM      5  C   UNL     1      -1.761   2.502 -21.595  0.00  0.00    +0.212 C 
ATOM      6  C   UNL     1      -2.919   2.655 -21.023  0.00  0.00    +0.191 C 
ATOM      7  O   UNL     1      -4.077   2.807 -20.452  0.00  0.00    -0.361 OA
ATOM      8  C   UNL     1      -3.945   3.035 -21.725  0.00  0.00    +0.097 C 
ATOM      9  C   UNL     1      -5.206   3.343 -21.800  0.00  0.00    +0.044 C 
ATOM     10  C   UNL     1      -3.813   3.262 -22.998  0.00  0.00    +0.040 C 
ATOM     11  C   UNL     1      -4.840   3.643 -23.700  0.00  0.00    +0.037 C 
ATOM     12  C   UNL     1      -4.708   3.871 -24.973  0.00  0.00    +0.151 C 
ATOM     13  O   UNL     1      -4.576   4.098 -26.246  0.00  0.00    -0.365 OA
ATOM     14  C   UNL     1      -3.550   3.718 -25.544  0.00  0.00    +0.093 C 
ATOM     15  C   UNL     1      -2.806   3.761 -26.609  0.00  0.00    +0.044 C 
ATOM     16  C   UNL     1      -2.524   3.337 -24.843  0.00  0.00    +0.038 C 
ATOM     17  C   UNL     1      -2.656   3.110 -23.570  0.00  0.00    +0.011 C 
ATOM     18  O   UNL     1       1.506   1.834 -22.040  0.00  0.00    -0.251 OA
ATOM     19  C   UNL     1      -1.630   2.729 -22.868  0.00  0.00    +0.046 C 
ENDROOT
TORSDOF 0
ENDMDL
MODEL 4
REMARK VINA RESULT:    -9.222      1.134      4.520
REMARK INTER + INTRA:          -9.222
REMARK INTER:                  -9.222
REMARK INTRA:                   0.000
REMARK UNBOUND:                 0.000
REMARK  Name = ZINC000072182677
REMARK  3 active torsions:
REMARK  status: ('A' for Active; 'I' for Inactive)
REMARK    1  A    between atoms: C_1  and  C_2
REMARK    2  A    between atoms: C_10  and  C_11
REMARK    3  A    between atoms: C_16  and  C_17
REMARK                            x       y       z     vdW  Elec       q    Type
REMARK                         _______ _______ _______ _____ _____    ______ ____
ROOT
ATOM      1  C   UNL     1      -1.573   3.484 -25.930  0.00  0.00    +0.019 C 
ATOM      2  C   UNL     1      -2.782   3.670 -25.490  0.00  0.00    +0.101 C 
ATOM      3  C   UNL     1      -3.791   4.101 -26.186  0.00  0.00    +0.311 C 
ATOM      4  O   UNL     1      -4.826   4.155 -25.403  0.00  0.00    -0.458 OA
ATOM      5  C   UNL     1      -4.457   3.757 -24.222  0.00  0.00    +0.212 C 
ATOM      6  C   UNL     1      -5.109   3.628 -23.104  0.00  0.00    +0.191 C 
ATOM      7  O   UNL     1      -5.761   3.500 -21.986  0.00  0.00    -0.361 OA
ATOM      8  C   UNL     1      -4.497   3.201 -22.040  0.00  0.00    +0.097 C 
ATOM      9  C   UNL     1      -4.519   2.879 -20.780  0.00  0.00    +0.044 C 
ATOM     10  C   UNL     1      -3.233   2.901 -22.094  0.00  0.00    +0.040 C 
ATOM     11  C   UNL     1      -2.621   2.473 -21.029  0.00  0.00    +0.037 C 
ATOM     12  C   UNL     1      -1.357   2.173 -21.083  0.00  0.00    +0.151 C 
ATOM     13  O   UNL     1      -0.093   1.874 -21.137  0.00  0.00    -0.365 OA
ATOM     14  C   UNL     1      -0.705   2.302 -22.201  0.00  0.00    +0.093 C 
ATOM     15  C   UNL     1       0.401   2.203 -22.877  0.00  0.00    +0.044 C 
ATOM     16  C   UNL     1      -1.317   2.729 -23.265  0.00  0.00    +0.038 C 
ATOM     17  C   UNL     1      -2.581   3.029 -23.211  0.00  0.00    +0.011 C 
ATOM     18  O   UNL     1      -3.769   4.422 -27.446  0.00  0.00    -0.251 OA
ATOM     19  C   UNL     1      -3.193   3.457 -24.275  0.00  0.00    +0.046 C 
ENDROOT
TORSDOF 0
ENDMDL
MODEL 5
REMARK VINA RESULT:    -8.784      2.033      3.116
REMARK INTER + INTRA:          -8.784
REMARK INTER:                  -8.784
REMARK INTRA:                   0.000
REMARK UNBOUND:                 0.000
REMARK  Name = ZINC000072182677
REMARK  3 active torsions:
REMARK  status: ('A' for Active; 'I' for Inactive)
REMARK    1  A    between atoms: C_1  and  C_2
REMARK    2  A    between atoms: C_10  and  C_11
REMARK    3  A    between atoms: C_16  and  C_17
REMARK                            x       y       z     vdW  Elec       q    Type
REMARK                         _______ _______ _______ _____ _____    ______ ____
ROOT
ATOM      1  C   UNL     1       0.788   1.461 -20.405  0.00  0.00    +0.019 C 
ATOM      2  C   UNL     1       1.468   1.545 -21.509  0.00  0.00    +0.101 C 
ATOM      3  C   UNL     1       2.660   1.068 -21.711  0.00  0.00    +0.311 C 
ATOM      4  O   UNL     1       3.004   1.348 -22.932  0.00  0.00    -0.458 OA
ATOM      5  C   UNL     1       2.024   1.998 -23.486  0.00  0.00    +0.212 C 
ATOM      6  C   UNL     1       1.874   2.495 -24.678  0.00  0.00    +0.191 C 
ATOM      7  O   UNL     1       1.723   2.992 -25.871  0.00  0.00    -0.361 OA
ATOM      8  C   UNL     1       0.774   3.113 -24.991  0.00  0.00    +0.097 C 
ATOM      9  C   UNL     1       0.051   3.757 -25.859  0.00  0.00    +0.044 C 
ATOM     10  C   UNL     1      -0.176   3.234 -24.111  0.00  0.00    +0.040 C 
ATOM     11  C   UNL     1      -1.276   3.853 -24.424  0.00  0.00    +0.037 C 
ATOM     12  C   UNL     1      -2.226   3.974 -23.545  0.00  0.00    +0.151 C 
ATOM     13  O   UNL     1      -3.175   4.095 -22.665  0.00  0.00    -0.365 OA
ATOM     14  C   UNL     1      -2.075   3.477 -22.353  0.00  0.00    +0.093 C 
ATOM     15  C   UNL     1      -2.537   3.260 -21.157  0.00  0.00    +0.044 C 
ATOM     16  C   UNL     1      -0.975   2.859 -22.040  0.00  0.00    +0.038 C 
ATOM     17  C   UNL     1      -0.026   2.738 -22.920  0.00  0.00    +0.011 C 
ATOM     18  O   UNL     1       3.383   0.424 -20.842  0.00  0.00    -0.251 OA
ATOM     19  C   UNL     1       1.074   2.120 -22.607  0.00  0.00    +0.046 C 
ENDROOT
TORSDOF 0
ENDMDL
MODEL 6
REMARK VINA RESULT:    -8.689      1.748      5.598
REMARK INTER + INTRA:          -8.689
REMARK INTER:                  -8.689
REMARK INTRA:                   0.000
REMARK UNBOUND:                 0.000
REMARK  Name = ZINC000072182677
REMARK  3 active torsions:
REMARK  status: ('A' for Active; 'I' for Inactive)
REMARK    1  A    between atoms: C_1  and  C_2
REMARK    2  A    between atoms: C_10  and  C_11
REMARK    3  A    between atoms: C_16  and  C_17
REMARK                            x       y       z     vdW  Elec       q    Type
REMARK                         _______ _______ _______ _____ _____    ______ ____
ROOT
ATOM      1  C   UNL     1      -2.941   4.119 -24.014  0.00  0.00    +0.019 C 
ATOM      2  C   UNL     1      -2.645   3.481 -22.921  0.00  0.00    +0.101 C 
ATOM      3  C   UNL     1      -3.441   3.280 -21.914  0.00  0.00    +0.311 C 
ATOM      4  O   UNL     1      -2.789   2.607 -21.014  0.00  0.00    -0.458 OA
ATOM      5  C   UNL     1      -1.589   2.391 -21.465  0.00  0.00    +0.212 C 
ATOM      6  C   UNL     1      -0.566   1.772 -20.954  0.00  0.00    +0.191 C 
ATOM      7  O   UNL     1       0.457   1.153 -20.444  0.00  0.00    -0.361 OA
ATOM      8  C   UNL     1       0.546   1.693 -21.622  0.00  0.00    +0.097 C 
ATOM      9  C   UNL     1       1.779   1.291 -21.714  0.00  0.00    +0.044 C 
ATOM     10  C   UNL     1       0.635   2.234 -22.801  0.00  0.00    +0.040 C 
ATOM     11  C   UNL     1       1.748   2.155 -23.470  0.00  0.00    +0.037 C 
ATOM     12  C   UNL     1       1.837   2.696 -24.649  0.00  0.00    +0.151 C 
ATOM     13  O   UNL     1       1.926   3.236 -25.828  0.00  0.00    -0.365 OA
ATOM     14  C   UNL     1       0.814   3.314 -25.159  0.00  0.00    +0.093 C 
ATOM     15  C   UNL     1       0.275   3.984 -26.135  0.00  0.00    +0.044 C 
ATOM     16  C   UNL     1      -0.298   3.393 -24.491  0.00  0.00    +0.038 C 
ATOM     17  C   UNL     1      -0.387   2.852 -23.312  0.00  0.00    +0.011 C 
ATOM     18  O   UNL     1      -4.674   3.683 -21.822  0.00  0.00    -0.251 OA
ATOM     19  C   UNL     1      -1.499   2.931 -22.644  0.00  0.00    +0.046 C 
ENDROOT
TORSDOF 0
ENDMDL
MODEL 7
REMARK VINA RESULT:    -8.379      1.424      4.589
REMARK INTER + INTRA:          -8.379
REMARK INTER:                  -8.379
REMARK INTRA:                   0.000
REMARK UNBOUND:                 0.000
REMARK  Name = ZINC000072182677
REMARK  3 active torsions:
REMARK  status: ('A' for Active; 'I' for Inactive)
REMARK    1  A    between atoms: C_1  and  C_2
REMARK    2  A    between atoms: C_10  and  C_11
REMARK    3  A    between atoms: C_16  and  C_17
REMARK                            x       y       z     vdW  Elec       q    Type
REMARK                         _______ _______ _______ _____ _____    ______ ____
ROOT
ATOM      1  C   UNL     1      -2.705   2.453 -20.994  0.00  0.00    +0.019 C 
ATOM      2  C   UNL     1      -2.734   2.897 -22.215  0.00  0.00    +0.101 C 
ATOM      3  C   UNL     1      -3.779   3.360 -22.835  0.00  0.00    +0.311 C 
ATOM      4  O   UNL     1      -3.414   3.705 -24.034  0.00  0.00    -0.458 OA
ATOM      5  C   UNL     1      -2.144   3.454 -24.156  0.00  0.00    +0.212 C 
ATOM      6  C   UNL     1      -1.316   3.617 -25.145  0.00  0.00    +0.191 C 
ATOM      7  O   UNL     1      -0.488   3.779 -26.134  0.00  0.00    -0.361 OA
ATOM      8  C   UNL     1      -0.068   3.279 -25.010  0.00  0.00    +0.097 C 
ATOM      9  C   UNL     1       1.131   3.178 -25.502  0.00  0.00    +0.044 C 
ATOM     10  C   UNL     1       0.352   2.780 -23.885  0.00  0.00    +0.040 C 
ATOM     11  C   UNL     1       1.601   2.442 -23.751  0.00  0.00    +0.037 C 
ATOM     12  C   UNL     1       2.021   1.943 -22.626  0.00  0.00    +0.151 C 
ATOM     13  O   UNL     1       2.440   1.443 -21.502  0.00  0.00    -0.365 OA
ATOM     14  C   UNL     1       1.192   1.781 -21.637  0.00  0.00    +0.093 C 
ATOM     15  C   UNL     1       0.957   1.398 -20.417  0.00  0.00    +0.044 C 
ATOM     16  C   UNL     1      -0.056   2.118 -21.772  0.00  0.00    +0.038 C 
ATOM     17  C   UNL     1      -0.476   2.617 -22.897  0.00  0.00    +0.011 C 
ATOM     18  O   UNL     1      -4.978   3.461 -22.343  0.00  0.00    -0.251 OA
ATOM     19  C   UNL     1      -1.724   2.955 -23.032  0.00  0.00    +0.046 C 
ENDROOT
TORSDOF 0
ENDMDL
MODEL 8
REMARK VINA RESULT:    -7.999      2.969      6.531
REMARK INTER + INTRA:          -7.999
REMARK INTER:                  -7.999
REMARK INTRA:                   0.000
REMARK UNBOUND:                 0.000
REMARK  Name = ZINC000072182677
REMARK  3 active torsions:
REMARK  status: ('A' for Active; 'I' for Inactive)
REMARK    1  A    between atoms: C_1  and  C_2
REMARK    2  A    between atoms: C_10  and  C_11
REMARK    3  A    between atoms: C_16  and  C_17
REMARK                            x       y       z     vdW  Elec       q    Type
REMARK                         _______ _______ _______ _____ _____    ______ ____
ROOT
ATOM      1  C   UNL     1      -0.433   4.848 -22.905  0.00  0.00    +0.019 C 
ATOM      2  C   UNL     1      -0.289   3.556 -22.869  0.00  0.00    +0.101 C 
ATOM      3  C   UNL     1      -1.249   2.680 -22.849  0.00  0.00    +0.311 C 
ATOM      4  O   UNL     1      -0.713   1.497 -22.814  0.00  0.00    -0.458 OA
ATOM      5  C   UNL     1       0.579   1.641 -22.814  0.00  0.00    +0.212 C 
ATOM      6  C   UNL     1       1.551   0.778 -22.787  0.00  0.00    +0.191 C 
ATOM      7  O   UNL     1       2.523  -0.085 -22.760  0.00  0.00    -0.361 OA
ATOM      8  C   UNL     1       2.784   1.188 -22.794  0.00  0.00    +0.097 C 
ATOM      9  C   UNL     1       4.058   0.926 -22.783  0.00  0.00    +0.044 C 
ATOM     10  C   UNL     1       3.046   2.460 -22.828  0.00  0.00    +0.040 C 
ATOM     11  C   UNL     1       4.281   2.870 -22.835  0.00  0.00    +0.037 C 
ATOM     12  C   UNL     1       4.543   4.143 -22.869  0.00  0.00    +0.151 C 
ATOM     13  O   UNL     1       4.804   5.416 -22.903  0.00  0.00    -0.365 OA
ATOM     14  C   UNL     1       3.571   5.006 -22.896  0.00  0.00    +0.093 C 
ATOM     15  C   UNL     1       3.161   6.239 -22.931  0.00  0.00    +0.044 C 
ATOM     16  C   UNL     1       2.337   4.597 -22.889  0.00  0.00    +0.038 C 
ATOM     17  C   UNL     1       2.075   3.324 -22.855  0.00  0.00    +0.011 C 
ATOM     18  O   UNL     1      -2.523   2.942 -22.860  0.00  0.00    -0.251 OA
ATOM     19  C   UNL     1       0.841   2.914 -22.848  0.00  0.00    +0.046 C 
ENDROOT
TORSDOF 0
ENDMDL
MODEL 9
REMARK VINA RESULT:    -7.787      3.938      7.795
REMARK INTER + INTRA:          -7.787
REMARK INTER:                  -7.787
REMARK INTRA:                   0.000
REMARK UNBOUND:                 0.000
REMARK  Name = ZINC000072182677
REMARK  3 active torsions:
REMARK  status: ('A' for Active; 'I' for Inactive)
REMARK    1  A    between atoms: C_1  and  C_2
REMARK    2  A    between atoms: C_10  and  C_11
REMARK    3  A    between atoms: C_16  and  C_17
REMARK                            x       y       z     vdW  Elec       q    Type
REMARK                         _______ _______ _______ _____ _____    ______ ____
ROOT
ATOM      1  C   UNL     1       1.991   4.873 -24.013  0.00  0.00    +0.019 C 
ATOM      2  C   UNL     1       1.712   3.672 -23.604  0.00  0.00    +0.101 C 
ATOM      3  C   UNL     1       0.582   3.051 -23.769  0.00  0.00    +0.311 C 
ATOM      4  O   UNL     1       0.685   1.876 -23.225  0.00  0.00    -0.458 OA
ATOM      5  C   UNL     1       1.879   1.770 -22.722  0.00  0.00    +0.212 C 
ATOM      6  C   UNL     1       2.471   0.805 -22.081  0.00  0.00    +0.191 C 
ATOM      7  O   UNL     1       3.062  -0.159 -21.440  0.00  0.00    -0.361 OA
ATOM      8  C   UNL     1       3.697   0.951 -21.675  0.00  0.00    +0.097 C 
ATOM      9  C   UNL     1       4.746   0.479 -21.070  0.00  0.00    +0.044 C 
ATOM     10  C   UNL     1       4.331   2.061 -21.909  0.00  0.00    +0.040 C 
ATOM     11  C   UNL     1       5.558   2.207 -21.502  0.00  0.00    +0.037 C 
ATOM     12  C   UNL     1       6.192   3.317 -21.736  0.00  0.00    +0.151 C 
ATOM     13  O   UNL     1       6.827   4.427 -21.970  0.00  0.00    -0.365 OA
ATOM     14  C   UNL     1       5.601   4.282 -22.377  0.00  0.00    +0.093 C 
ATOM     15  C   UNL     1       5.626   5.479 -22.882  0.00  0.00    +0.044 C 
ATOM     16  C   UNL     1       4.375   4.136 -22.784  0.00  0.00    +0.038 C 
ATOM     17  C   UNL     1       3.740   3.025 -22.549  0.00  0.00    +0.011 C 
ATOM     18  O   UNL     1      -0.468   3.523 -24.374  0.00  0.00    -0.251 OA
ATOM     19  C   UNL     1       2.514   2.880 -22.956  0.00  0.00    +0.046 C 
ENDROOT
TORSDOF 0
ENDMDL
