MODEL 1
REMARK VINA RESULT:    -8.640      0.000      0.000
REMARK INTER + INTRA:         -17.085
REMARK INTER:                 -14.947
REMARK INTRA:                  -2.137
REMARK UNBOUND:                -0.868
REMARK  Name = CCCCCCCCCCCC1=C(O)C(=O)C=C(Nc2cc(OC)c(OC)c(OC)c2)C1=O                ZINC000100392827
REMARK  19 active torsions:
REMARK  status: ('A' for Active; 'I' for Inactive)
REMARK    1  A    between atoms: C_1  and  C_2
REMARK    2  A    between atoms: C_2  and  C_3
REMARK    3  A    between atoms: C_3  and  C_4
REMARK    4  A    between atoms: C_4  and  C_5
REMARK    5  A    between atoms: C_5  and  C_6
REMARK    6  A    between atoms: C_6  and  C_7
REMARK    7  A    between atoms: C_7  and  C_8
REMARK    8  A    between atoms: C_8  and  C_9
REMARK    9  A    between atoms: C_9  and  C_10
REMARK   10  A    between atoms: C_10  and  C_11
REMARK   11  A    between atoms: C_11  and  C_12
REMARK   12  A    between atoms: C_18  and  N_19
REMARK   13  A    between atoms: N_19  and  C_20
REMARK   14  A    between atoms: C_22  and  O_23
REMARK   15  A    between atoms: O_23  and  C_24
REMARK   16  A    between atoms: C_25  and  O_26
REMARK   17  A    between atoms: O_26  and  C_27
REMARK   18  A    between atoms: C_28  and  O_29
REMARK   19  A    between atoms: O_29  and  C_30
REMARK                            x       y       z     vdW  Elec       q    Type
REMARK                         _______ _______ _______ _____ _____    ______ ____
ROOT
ATOM      1  C   UNL     1       0.790   2.472 -23.109  0.00  0.00    -0.008 C 
ATOM      2  C   UNL     1       0.887   1.899 -21.946  0.00  0.00    +0.228 C 
ATOM      3  C   UNL     1       2.058   1.631 -21.449  0.00  0.00    +0.227 C 
ATOM      4  C   UNL     1       3.131   1.935 -22.115  0.00  0.00    +0.077 C 
ATOM      5  C   UNL     1       3.035   2.508 -23.278  0.00  0.00    +0.022 C 
ATOM      6  O   UNL     1       2.154   1.058 -20.286  0.00  0.00    -0.284 OA
ATOM      7  O   UNL     1      -0.188   1.594 -21.280  0.00  0.00    -0.284 OA
ATOM      8  C   UNL     1       1.864   2.776 -23.775  0.00  0.00    -0.112 C 
ATOM      9  O   UNL     1       1.768   3.349 -24.938  0.00  0.00    -0.828 OA
ENDROOT
BRANCH   5  10
ATOM     10  N   UNL     1       4.109   2.813 -23.944  0.00  0.00    -0.315 N 
ATOM     11  H   UNL     1       4.271   2.412 -24.828  0.00  0.00    +0.152 HD
BRANCH  10  12
ATOM     12  C   UNL     1       4.970   3.648 -23.442  0.00  0.00    +0.038 A 
ATOM     13  C   UNL     1       6.244   3.412 -23.548  0.00  0.00    +0.072 A 
ATOM     14  C   UNL     1       7.104   4.247 -23.046  0.00  0.00    +0.167 A 
ATOM     15  C   UNL     1       6.690   5.319 -22.437  0.00  0.00    +0.204 A 
ATOM     16  C   UNL     1       5.416   5.556 -22.331  0.00  0.00    +0.167 A 
ATOM     17  C   UNL     1       4.556   4.720 -22.833  0.00  0.00    +0.072 A 
BRANCH  14  18
ATOM     18  O   UNL     1       8.378   4.011 -23.152  0.00  0.00    -0.491 OA
ATOM     19  C   UNL     1       8.869   3.593 -24.281  0.00  0.00    +0.277 C 
ENDBRANCH  14  18
BRANCH  15  20
ATOM     20  O   UNL     1       7.550   6.154 -21.935  0.00  0.00    -0.488 OA
ATOM     21  C   UNL     1       8.072   7.079 -22.685  0.00  0.00    +0.277 C 
ENDBRANCH  15  20
BRANCH  16  22
ATOM     22  O   UNL     1       5.002   6.627 -21.722  0.00  0.00    -0.491 OA
ATOM     23  C   UNL     1       4.063   7.352 -22.251  0.00  0.00    +0.277 C 
ENDBRANCH  16  22
ENDBRANCH  10  12
ENDBRANCH   5  10
BRANCH   1  24
ATOM     24  C   UNL     1      -0.381   2.740 -23.606  0.00  0.00    +0.038 C 
BRANCH  24  25
ATOM     25  C   UNL     1      -0.973   3.858 -23.307  0.00  0.00    +0.005 C 
BRANCH  25  26
ATOM     26  C   UNL     1      -1.891   4.339 -24.094  0.00  0.00    +0.000 C 
BRANCH  26  27
ATOM     27  C   UNL     1      -2.633   3.534 -24.794  0.00  0.00    +0.000 C 
BRANCH  27  28
ATOM     28  C   UNL     1      -3.853   3.869 -25.091  0.00  0.00    +0.000 C 
BRANCH  28  29
ATOM     29  C   UNL     1      -4.620   4.399 -24.186  0.00  0.00    +0.000 C 
BRANCH  29  30
ATOM     30  C   UNL     1      -5.329   3.639 -23.405  0.00  0.00    -0.000 C 
BRANCH  30  31
ATOM     31  C   UNL     1      -5.115   3.641 -22.124  0.00  0.00    -0.000 C 
BRANCH  31  32
ATOM     32  C   UNL     1      -4.625   2.585 -21.545  0.00  0.00    -0.000 C 
BRANCH  32  34
ATOM     33  C   UNL     1      -3.123   3.709 -20.300  0.00  0.00    +0.004 C 
ATOM     34  C   UNL     1      -3.465   2.643 -20.960  0.00  0.00    -0.003 C 
ENDBRANCH  32  34
ENDBRANCH  31  32
ENDBRANCH  30  31
ENDBRANCH  29  30
ENDBRANCH  28  29
ENDBRANCH  27  28
ENDBRANCH  26  27
ENDBRANCH  25  26
ENDBRANCH  24  25
ENDBRANCH   1  24
TORSDOF 15
ENDMDL
MODEL 2
REMARK VINA RESULT:    -8.296      2.569      7.716
REMARK INTER + INTRA:         -16.439
REMARK INTER:                 -14.181
REMARK INTRA:                  -2.258
REMARK UNBOUND:                -0.868
REMARK  Name = CCCCCCCCCCCC1=C(O)C(=O)C=C(Nc2cc(OC)c(OC)c(OC)c2)C1=O                ZINC000100392827
REMARK  19 active torsions:
REMARK  status: ('A' for Active; 'I' for Inactive)
REMARK    1  A    between atoms: C_1  and  C_2
REMARK    2  A    between atoms: C_2  and  C_3
REMARK    3  A    between atoms: C_3  and  C_4
REMARK    4  A    between atoms: C_4  and  C_5
REMARK    5  A    between atoms: C_5  and  C_6
REMARK    6  A    between atoms: C_6  and  C_7
REMARK    7  A    between atoms: C_7  and  C_8
REMARK    8  A    between atoms: C_8  and  C_9
REMARK    9  A    between atoms: C_9  and  C_10
REMARK   10  A    between atoms: C_10  and  C_11
REMARK   11  A    between atoms: C_11  and  C_12
REMARK   12  A    between atoms: C_18  and  N_19
REMARK   13  A    between atoms: N_19  and  C_20
REMARK   14  A    between atoms: C_22  and  O_23
REMARK   15  A    between atoms: O_23  and  C_24
REMARK   16  A    between atoms: C_25  and  O_26
REMARK   17  A    between atoms: O_26  and  C_27
REMARK   18  A    between atoms: C_28  and  O_29
REMARK   19  A    between atoms: O_29  and  C_30
REMARK                            x       y       z     vdW  Elec       q    Type
REMARK                         _______ _______ _______ _____ _____    ______ ____
ROOT
ATOM      1  C   UNL     1       3.440   3.924 -23.649  0.00  0.00    -0.008 C 
ATOM      2  C   UNL     1       3.303   2.887 -24.421  0.00  0.00    +0.228 C 
ATOM      3  C   UNL     1       2.148   2.622 -24.955  0.00  0.00    +0.227 C 
ATOM      4  C   UNL     1       1.130   3.394 -24.717  0.00  0.00    +0.077 C 
ATOM      5  C   UNL     1       1.266   4.430 -23.944  0.00  0.00    +0.022 C 
ATOM      6  O   UNL     1       2.012   1.585 -25.728  0.00  0.00    -0.284 OA
ATOM      7  O   UNL     1       4.322   2.115 -24.660  0.00  0.00    -0.284 OA
ATOM      8  C   UNL     1       2.421   4.695 -23.411  0.00  0.00    -0.112 C 
ATOM      9  O   UNL     1       2.557   5.732 -22.638  0.00  0.00    -0.828 OA
ENDROOT
BRANCH   5  10
ATOM     10  N   UNL     1       0.248   5.202 -23.706  0.00  0.00    -0.315 N 
ATOM     11  H   UNL     1       0.355   6.180 -23.724  0.00  0.00    +0.152 HD
BRANCH  10  12
ATOM     12  C   UNL     1      -0.915   4.681 -23.443  0.00  0.00    +0.038 A 
ATOM     13  C   UNL     1      -1.567   4.043 -24.369  0.00  0.00    +0.072 A 
ATOM     14  C   UNL     1      -2.728   3.522 -24.106  0.00  0.00    +0.167 A 
ATOM     15  C   UNL     1      -3.239   3.640 -22.915  0.00  0.00    +0.204 A 
ATOM     16  C   UNL     1      -2.587   4.277 -21.989  0.00  0.00    +0.167 A 
ATOM     17  C   UNL     1      -1.425   4.798 -22.253  0.00  0.00    +0.072 A 
BRANCH  14  18
ATOM     18  O   UNL     1      -3.380   2.884 -25.032  0.00  0.00    -0.491 OA
ATOM     19  C   UNL     1      -3.355   3.316 -26.259  0.00  0.00    +0.277 C 
ENDBRANCH  14  18
BRANCH  15  20
ATOM     20  O   UNL     1      -4.400   3.119 -22.652  0.00  0.00    -0.488 OA
ATOM     21  C   UNL     1      -5.484   3.711 -23.058  0.00  0.00    +0.277 C 
ENDBRANCH  15  20
BRANCH  16  22
ATOM     22  O   UNL     1      -3.097   4.395 -20.799  0.00  0.00    -0.491 OA
ATOM     23  C   UNL     1      -3.019   3.407 -19.959  0.00  0.00    +0.277 C 
ENDBRANCH  16  22
ENDBRANCH  10  12
ENDBRANCH   5  10
BRANCH   1  24
ATOM     24  C   UNL     1       4.595   4.189 -23.115  0.00  0.00    +0.038 C 
BRANCH  24  25
ATOM     25  C   UNL     1       4.843   3.829 -21.891  0.00  0.00    +0.005 C 
BRANCH  25  26
ATOM     26  C   UNL     1       5.648   2.835 -21.655  0.00  0.00    +0.000 C 
BRANCH  26  27
ATOM     27  C   UNL     1       5.386   2.001 -20.693  0.00  0.00    +0.000 C 
BRANCH  27  28
ATOM     28  C   UNL     1       5.063   0.773 -20.968  0.00  0.00    +0.000 C 
BRANCH  28  29
ATOM     29  C   UNL     1       3.815   0.411 -20.958  0.00  0.00    +0.000 C 
BRANCH  29  30
ATOM     30  C   UNL     1       3.142   0.360 -22.069  0.00  0.00    -0.000 C 
BRANCH  30  31
ATOM     31  C   UNL     1       1.895   0.723 -22.093  0.00  0.00    -0.000 C 
BRANCH  31  32
ATOM     32  C   UNL     1       1.477   1.665 -21.301  0.00  0.00    -0.000 C 
BRANCH  32  34
ATOM     33  C   UNL     1      -0.655   1.131 -21.790  0.00  0.00    +0.004 C 
ATOM     34  C   UNL     1       0.201   1.864 -21.144  0.00  0.00    -0.003 C 
ENDBRANCH  32  34
ENDBRANCH  31  32
ENDBRANCH  30  31
ENDBRANCH  29  30
ENDBRANCH  28  29
ENDBRANCH  27  28
ENDBRANCH  26  27
ENDBRANCH  25  26
ENDBRANCH  24  25
ENDBRANCH   1  24
TORSDOF 15
ENDMDL
MODEL 3
REMARK VINA RESULT:    -8.137      2.508      7.796
REMARK INTER + INTRA:         -16.140
REMARK INTER:                 -14.322
REMARK INTRA:                  -1.818
REMARK UNBOUND:                -0.868
REMARK  Name = CCCCCCCCCCCC1=C(O)C(=O)C=C(Nc2cc(OC)c(OC)c(OC)c2)C1=O                ZINC000100392827
REMARK  19 active torsions:
REMARK  status: ('A' for Active; 'I' for Inactive)
REMARK    1  A    between atoms: C_1  and  C_2
REMARK    2  A    between atoms: C_2  and  C_3
REMARK    3  A    between atoms: C_3  and  C_4
REMARK    4  A    between atoms: C_4  and  C_5
REMARK    5  A    between atoms: C_5  and  C_6
REMARK    6  A    between atoms: C_6  and  C_7
REMARK    7  A    between atoms: C_7  and  C_8
REMARK    8  A    between atoms: C_8  and  C_9
REMARK    9  A    between atoms: C_9  and  C_10
REMARK   10  A    between atoms: C_10  and  C_11
REMARK   11  A    between atoms: C_11  and  C_12
REMARK   12  A    between atoms: C_18  and  N_19
REMARK   13  A    between atoms: N_19  and  C_20
REMARK   14  A    between atoms: C_22  and  O_23
REMARK   15  A    between atoms: O_23  and  C_24
REMARK   16  A    between atoms: C_25  and  O_26
REMARK   17  A    between atoms: O_26  and  C_27
REMARK   18  A    between atoms: C_28  and  O_29
REMARK   19  A    between atoms: O_29  and  C_30
REMARK                            x       y       z     vdW  Elec       q    Type
REMARK                         _______ _______ _______ _____ _____    ______ ____
ROOT
ATOM      1  C   UNL     1       3.514   3.997 -23.568  0.00  0.00    -0.008 C 
ATOM      2  C   UNL     1       3.371   2.958 -24.336  0.00  0.00    +0.228 C 
ATOM      3  C   UNL     1       2.205   2.673 -24.835  0.00  0.00    +0.227 C 
ATOM      4  C   UNL     1       1.181   3.427 -24.565  0.00  0.00    +0.077 C 
ATOM      5  C   UNL     1       1.323   4.466 -23.797  0.00  0.00    +0.022 C 
ATOM      6  O   UNL     1       2.064   1.633 -25.602  0.00  0.00    -0.284 OA
ATOM      7  O   UNL     1       4.396   2.204 -24.605  0.00  0.00    -0.284 OA
ATOM      8  C   UNL     1       2.489   4.752 -23.299  0.00  0.00    -0.112 C 
ATOM      9  O   UNL     1       2.631   5.791 -22.531  0.00  0.00    -0.828 OA
ENDROOT
BRANCH   5  10
ATOM     10  N   UNL     1       0.299   5.220 -23.528  0.00  0.00    -0.315 N 
ATOM     11  H   UNL     1       0.413   6.194 -23.443  0.00  0.00    +0.152 HD
BRANCH  10  12
ATOM     12  C   UNL     1      -0.877   4.687 -23.371  0.00  0.00    +0.038 A 
ATOM     13  C   UNL     1      -1.491   4.790 -22.230  0.00  0.00    +0.072 A 
ATOM     14  C   UNL     1      -2.666   4.258 -22.074  0.00  0.00    +0.167 A 
ATOM     15  C   UNL     1      -3.228   3.621 -23.059  0.00  0.00    +0.204 A 
ATOM     16  C   UNL     1      -2.614   3.517 -24.200  0.00  0.00    +0.167 A 
ATOM     17  C   UNL     1      -1.438   4.051 -24.356  0.00  0.00    +0.072 A 
BRANCH  14  18
ATOM     18  O   UNL     1      -3.280   4.361 -20.932  0.00  0.00    -0.491 OA
ATOM     19  C   UNL     1      -2.904   3.631 -19.924  0.00  0.00    +0.277 C 
ENDBRANCH  14  18
BRANCH  15  20
ATOM     20  O   UNL     1      -4.403   3.088 -22.902  0.00  0.00    -0.488 OA
ATOM     21  C   UNL     1      -5.468   3.755 -23.236  0.00  0.00    +0.277 C 
ENDBRANCH  15  20
BRANCH  16  22
ATOM     22  O   UNL     1      -3.175   2.881 -25.185  0.00  0.00    -0.491 OA
ATOM     23  C   UNL     1      -3.270   3.445 -26.352  0.00  0.00    +0.277 C 
ENDBRANCH  16  22
ENDBRANCH  10  12
ENDBRANCH   5  10
BRANCH   1  24
ATOM     24  C   UNL     1       4.680   4.283 -23.069  0.00  0.00    +0.038 C 
BRANCH  24  25
ATOM     25  C   UNL     1       5.354   3.373 -22.432  0.00  0.00    +0.005 C 
BRANCH  25  26
ATOM     26  C   UNL     1       4.989   3.010 -21.237  0.00  0.00    +0.000 C 
BRANCH  26  27
ATOM     27  C   UNL     1       5.513   1.954 -20.690  0.00  0.00    +0.000 C 
BRANCH  27  28
ATOM     28  C   UNL     1       5.053   0.775 -20.982  0.00  0.00    +0.000 C 
BRANCH  28  29
ATOM     29  C   UNL     1       3.776   0.543 -20.928  0.00  0.00    +0.000 C 
BRANCH  29  30
ATOM     30  C   UNL     1       3.100   0.354 -22.022  0.00  0.00    -0.000 C 
BRANCH  30  31
ATOM     31  C   UNL     1       1.831   0.631 -22.060  0.00  0.00    -0.000 C 
BRANCH  31  32
ATOM     32  C   UNL     1       1.367   1.649 -21.400  0.00  0.00    -0.000 C 
BRANCH  32  34
ATOM     33  C   UNL     1      -0.791   1.150 -21.803  0.00  0.00    +0.004 C 
ATOM     34  C   UNL     1       0.118   1.676 -21.038  0.00  0.00    -0.003 C 
ENDBRANCH  32  34
ENDBRANCH  31  32
ENDBRANCH  30  31
ENDBRANCH  29  30
ENDBRANCH  28  29
ENDBRANCH  27  28
ENDBRANCH  26  27
ENDBRANCH  25  26
ENDBRANCH  24  25
ENDBRANCH   1  24
TORSDOF 15
ENDMDL
MODEL 4
REMARK VINA RESULT:    -8.039      2.396      9.085
REMARK INTER + INTRA:         -15.957
REMARK INTER:                 -14.687
REMARK INTRA:                  -1.270
REMARK UNBOUND:                -0.868
REMARK  Name = CCCCCCCCCCCC1=C(O)C(=O)C=C(Nc2cc(OC)c(OC)c(OC)c2)C1=O                ZINC000100392827
REMARK  19 active torsions:
REMARK  status: ('A' for Active; 'I' for Inactive)
REMARK    1  A    between atoms: C_1  and  C_2
REMARK    2  A    between atoms: C_2  and  C_3
REMARK    3  A    between atoms: C_3  and  C_4
REMARK    4  A    between atoms: C_4  and  C_5
REMARK    5  A    between atoms: C_5  and  C_6
REMARK    6  A    between atoms: C_6  and  C_7
REMARK    7  A    between atoms: C_7  and  C_8
REMARK    8  A    between atoms: C_8  and  C_9
REMARK    9  A    between atoms: C_9  and  C_10
REMARK   10  A    between atoms: C_10  and  C_11
REMARK   11  A    between atoms: C_11  and  C_12
REMARK   12  A    between atoms: C_18  and  N_19
REMARK   13  A    between atoms: N_19  and  C_20
REMARK   14  A    between atoms: C_22  and  O_23
REMARK   15  A    between atoms: O_23  and  C_24
REMARK   16  A    between atoms: C_25  and  O_26
REMARK   17  A    between atoms: O_26  and  C_27
REMARK   18  A    between atoms: C_28  and  O_29
REMARK   19  A    between atoms: O_29  and  C_30
REMARK                            x       y       z     vdW  Elec       q    Type
REMARK                         _______ _______ _______ _____ _____    ______ ____
ROOT
ATOM      1  C   UNL     1       2.527   2.822 -22.586  0.00  0.00    -0.008 C 
ATOM      2  C   UNL     1       2.651   4.084 -22.874  0.00  0.00    +0.228 C 
ATOM      3  C   UNL     1       1.714   4.695 -23.536  0.00  0.00    +0.227 C 
ATOM      4  C   UNL     1       0.653   4.044 -23.911  0.00  0.00    +0.077 C 
ATOM      5  C   UNL     1       0.528   2.783 -23.624  0.00  0.00    +0.022 C 
ATOM      6  O   UNL     1       1.839   5.957 -23.823  0.00  0.00    -0.284 OA
ATOM      7  O   UNL     1       3.713   4.734 -22.499  0.00  0.00    -0.284 OA
ATOM      8  C   UNL     1       1.465   2.171 -22.962  0.00  0.00    -0.112 C 
ATOM      9  O   UNL     1       1.341   0.910 -22.674  0.00  0.00    -0.828 OA
ENDROOT
BRANCH   5  10
ATOM     10  N   UNL     1      -0.533   2.132 -23.998  0.00  0.00    -0.315 N 
ATOM     11  H   UNL     1      -0.446   1.334 -24.567  0.00  0.00    +0.152 HD
BRANCH  10  12
ATOM     12  C   UNL     1      -1.710   2.537 -23.622  0.00  0.00    +0.038 A 
ATOM     13  C   UNL     1      -2.561   2.972 -24.503  0.00  0.00    +0.072 A 
ATOM     14  C   UNL     1      -3.737   3.376 -24.126  0.00  0.00    +0.167 A 
ATOM     15  C   UNL     1      -4.063   3.347 -22.867  0.00  0.00    +0.204 A 
ATOM     16  C   UNL     1      -3.212   2.913 -21.986  0.00  0.00    +0.167 A 
ATOM     17  C   UNL     1      -2.035   2.508 -22.363  0.00  0.00    +0.072 A 
BRANCH  14  18
ATOM     18  O   UNL     1      -4.589   3.811 -25.008  0.00  0.00    -0.491 OA
ATOM     19  C   UNL     1      -4.815   3.121 -26.087  0.00  0.00    +0.277 C 
ENDBRANCH  14  18
BRANCH  15  20
ATOM     20  O   UNL     1      -5.239   3.752 -22.491  0.00  0.00    -0.488 OA
ATOM     21  C   UNL     1      -6.100   2.899 -22.021  0.00  0.00    +0.277 C 
ENDBRANCH  15  20
BRANCH  16  22
ATOM     22  O   UNL     1      -3.537   2.883 -20.728  0.00  0.00    -0.491 OA
ATOM     23  C   UNL     1      -3.019   3.744 -19.903  0.00  0.00    +0.277 C 
ENDBRANCH  16  22
ENDBRANCH  10  12
ENDBRANCH   5  10
BRANCH   1  24
ATOM     24  C   UNL     1       3.464   2.211 -21.924  0.00  0.00    +0.038 C 
BRANCH  24  25
ATOM     25  C   UNL     1       4.538   1.811 -22.538  0.00  0.00    +0.005 C 
BRANCH  25  26
ATOM     26  C   UNL     1       5.709   2.072 -22.035  0.00  0.00    +0.000 C 
BRANCH  26  27
ATOM     27  C   UNL     1       6.584   2.732 -22.734  0.00  0.00    +0.000 C 
BRANCH  27  28
ATOM     28  C   UNL     1       7.065   3.852 -22.283  0.00  0.00    +0.000 C 
BRANCH  28  29
ATOM     29  C   UNL     1       7.039   4.104 -21.009  0.00  0.00    +0.000 C 
BRANCH  29  30
ATOM     30  C   UNL     1       7.726   5.097 -20.527  0.00  0.00    -0.000 C 
BRANCH  30  31
ATOM     31  C   UNL     1       7.132   6.027 -19.840  0.00  0.00    -0.000 C 
BRANCH  31  32
ATOM     32  C   UNL     1       6.946   7.203 -20.361  0.00  0.00    -0.000 C 
BRANCH  32  34
ATOM     33  C   UNL     1       4.982   8.265 -20.651  0.00  0.00    +0.004 C 
ATOM     34  C   UNL     1       5.887   7.436 -21.079  0.00  0.00    -0.003 C 
ENDBRANCH  32  34
ENDBRANCH  31  32
ENDBRANCH  30  31
ENDBRANCH  29  30
ENDBRANCH  28  29
ENDBRANCH  27  28
ENDBRANCH  26  27
ENDBRANCH  25  26
ENDBRANCH  24  25
ENDBRANCH   1  24
TORSDOF 15
ENDMDL
MODEL 5
REMARK VINA RESULT:    -7.894      1.808      3.671
REMARK INTER + INTRA:         -15.684
REMARK INTER:                 -14.817
REMARK INTRA:                  -0.868
REMARK UNBOUND:                -0.868
REMARK  Name = CCCCCCCCCCCC1=C(O)C(=O)C=C(Nc2cc(OC)c(OC)c(OC)c2)C1=O                ZINC000100392827
REMARK  19 active torsions:
REMARK  status: ('A' for Active; 'I' for Inactive)
REMARK    1  A    between atoms: C_1  and  C_2
REMARK    2  A    between atoms: C_2  and  C_3
REMARK    3  A    between atoms: C_3  and  C_4
REMARK    4  A    between atoms: C_4  and  C_5
REMARK    5  A    between atoms: C_5  and  C_6
REMARK    6  A    between atoms: C_6  and  C_7
REMARK    7  A    between atoms: C_7  and  C_8
REMARK    8  A    between atoms: C_8  and  C_9
REMARK    9  A    between atoms: C_9  and  C_10
REMARK   10  A    between atoms: C_10  and  C_11
REMARK   11  A    between atoms: C_11  and  C_12
REMARK   12  A    between atoms: C_18  and  N_19
REMARK   13  A    between atoms: N_19  and  C_20
REMARK   14  A    between atoms: C_22  and  O_23
REMARK   15  A    between atoms: O_23  and  C_24
REMARK   16  A    between atoms: C_25  and  O_26
REMARK   17  A    between atoms: O_26  and  C_27
REMARK   18  A    between atoms: C_28  and  O_29
REMARK   19  A    between atoms: O_29  and  C_30
REMARK                            x       y       z     vdW  Elec       q    Type
REMARK                         _______ _______ _______ _____ _____    ______ ____
ROOT
ATOM      1  C   UNL     1      -0.862   2.920 -22.378  0.00  0.00    -0.008 C 
ATOM      2  C   UNL     1      -0.960   4.179 -22.684  0.00  0.00    +0.228 C 
ATOM      3  C   UNL     1       0.003   4.769 -23.328  0.00  0.00    +0.227 C 
ATOM      4  C   UNL     1       1.064   4.099 -23.666  0.00  0.00    +0.077 C 
ATOM      5  C   UNL     1       1.163   2.840 -23.360  0.00  0.00    +0.022 C 
ATOM      6  O   UNL     1      -0.096   6.029 -23.634  0.00  0.00    -0.284 OA
ATOM      7  O   UNL     1      -2.022   4.849 -22.346  0.00  0.00    -0.284 OA
ATOM      8  C   UNL     1       0.200   2.250 -22.716  0.00  0.00    -0.112 C 
ATOM      9  O   UNL     1       0.299   0.990 -22.410  0.00  0.00    -0.828 OA
ENDROOT
BRANCH   5  10
ATOM     10  N   UNL     1       2.224   2.170 -23.697  0.00  0.00    -0.315 N 
ATOM     11  H   UNL     1       2.164   1.461 -24.377  0.00  0.00    +0.152 HD
BRANCH  10  12
ATOM     12  C   UNL     1       3.368   2.437 -23.137  0.00  0.00    +0.038 A 
ATOM     13  C   UNL     1       3.775   1.733 -22.123  0.00  0.00    +0.072 A 
ATOM     14  C   UNL     1       4.917   2.001 -21.563  0.00  0.00    +0.167 A 
ATOM     15  C   UNL     1       5.652   2.973 -22.017  0.00  0.00    +0.204 A 
ATOM     16  C   UNL     1       5.245   3.677 -23.031  0.00  0.00    +0.167 A 
ATOM     17  C   UNL     1       4.102   3.409 -23.591  0.00  0.00    +0.072 A 
BRANCH  14  18
ATOM     18  O   UNL     1       5.325   1.297 -20.549  0.00  0.00    -0.491 OA
ATOM     19  C   UNL     1       4.947   0.059 -20.424  0.00  0.00    +0.277 C 
ENDBRANCH  14  18
BRANCH  15  20
ATOM     20  O   UNL     1       6.794   3.241 -21.457  0.00  0.00    -0.488 OA
ATOM     21  C   UNL     1       6.895   4.241 -20.633  0.00  0.00    +0.277 C 
ENDBRANCH  15  20
BRANCH  16  22
ATOM     22  O   UNL     1       5.979   4.649 -23.485  0.00  0.00    -0.491 OA
ATOM     23  C   UNL     1       6.962   4.396 -24.296  0.00  0.00    +0.277 C 
ENDBRANCH  16  22
ENDBRANCH  10  12
ENDBRANCH   5  10
BRANCH   1  24
ATOM     24  C   UNL     1      -1.825   2.330 -21.734  0.00  0.00    +0.038 C 
BRANCH  24  25
ATOM     25  C   UNL     1      -2.334   2.885 -20.675  0.00  0.00    +0.005 C 
BRANCH  25  26
ATOM     26  C   UNL     1      -3.572   2.655 -20.350  0.00  0.00    +0.000 C 
BRANCH  26  27
ATOM     27  C   UNL     1      -4.416   2.253 -21.253  0.00  0.00    +0.000 C 
BRANCH  27  28
ATOM     28  C   UNL     1      -5.517   2.915 -21.453  0.00  0.00    +0.000 C 
BRANCH  28  29
ATOM     29  C   UNL     1      -5.725   3.503 -22.593  0.00  0.00    +0.000 C 
BRANCH  29  30
ATOM     30  C   UNL     1      -4.761   3.603 -23.459  0.00  0.00    -0.000 C 
BRANCH  30  31
ATOM     31  C   UNL     1      -4.971   4.183 -24.603  0.00  0.00    -0.000 C 
BRANCH  31  32
ATOM     32  C   UNL     1      -3.967   4.604 -25.313  0.00  0.00    -0.000 C 
BRANCH  32  34
ATOM     33  C   UNL     1      -2.229   3.369 -26.036  0.00  0.00    +0.004 C 
ATOM     34  C   UNL     1      -3.432   3.827 -26.209  0.00  0.00    -0.003 C 
ENDBRANCH  32  34
ENDBRANCH  31  32
ENDBRANCH  30  31
ENDBRANCH  29  30
ENDBRANCH  28  29
ENDBRANCH  27  28
ENDBRANCH  26  27
ENDBRANCH  25  26
ENDBRANCH  24  25
ENDBRANCH   1  24
TORSDOF 15
ENDMDL
MODEL 6
REMARK VINA RESULT:    -7.849      2.424      9.083
REMARK INTER + INTRA:         -15.600
REMARK INTER:                 -14.379
REMARK INTRA:                  -1.220
REMARK UNBOUND:                -0.868
REMARK  Name = CCCCCCCCCCCC1=C(O)C(=O)C=C(Nc2cc(OC)c(OC)c(OC)c2)C1=O                ZINC000100392827
REMARK  19 active torsions:
REMARK  status: ('A' for Active; 'I' for Inactive)
REMARK    1  A    between atoms: C_1  and  C_2
REMARK    2  A    between atoms: C_2  and  C_3
REMARK    3  A    between atoms: C_3  and  C_4
REMARK    4  A    between atoms: C_4  and  C_5
REMARK    5  A    between atoms: C_5  and  C_6
REMARK    6  A    between atoms: C_6  and  C_7
REMARK    7  A    between atoms: C_7  and  C_8
REMARK    8  A    between atoms: C_8  and  C_9
REMARK    9  A    between atoms: C_9  and  C_10
REMARK   10  A    between atoms: C_10  and  C_11
REMARK   11  A    between atoms: C_11  and  C_12
REMARK   12  A    between atoms: C_18  and  N_19
REMARK   13  A    between atoms: N_19  and  C_20
REMARK   14  A    between atoms: C_22  and  O_23
REMARK   15  A    between atoms: O_23  and  C_24
REMARK   16  A    between atoms: C_25  and  O_26
REMARK   17  A    between atoms: O_26  and  C_27
REMARK   18  A    between atoms: C_28  and  O_29
REMARK   19  A    between atoms: O_29  and  C_30
REMARK                            x       y       z     vdW  Elec       q    Type
REMARK                         _______ _______ _______ _____ _____    ______ ____
ROOT
ATOM      1  C   UNL     1       2.465   2.820 -22.606  0.00  0.00    -0.008 C 
ATOM      2  C   UNL     1       2.578   4.082 -22.899  0.00  0.00    +0.228 C 
ATOM      3  C   UNL     1       1.627   4.688 -23.545  0.00  0.00    +0.227 C 
ATOM      4  C   UNL     1       0.562   4.033 -23.898  0.00  0.00    +0.077 C 
ATOM      5  C   UNL     1       0.447   2.771 -23.606  0.00  0.00    +0.022 C 
ATOM      6  O   UNL     1       1.742   5.950 -23.837  0.00  0.00    -0.284 OA
ATOM      7  O   UNL     1       3.645   4.737 -22.545  0.00  0.00    -0.284 OA
ATOM      8  C   UNL     1       1.398   2.165 -22.960  0.00  0.00    -0.112 C 
ATOM      9  O   UNL     1       1.284   0.904 -22.667  0.00  0.00    -0.828 OA
ENDROOT
BRANCH   5  10
ATOM     10  N   UNL     1      -0.618   2.116 -23.959  0.00  0.00    -0.315 N 
ATOM     11  H   UNL     1      -0.539   1.317 -24.527  0.00  0.00    +0.152 HD
BRANCH  10  12
ATOM     12  C   UNL     1      -1.790   2.517 -23.560  0.00  0.00    +0.038 A 
ATOM     13  C   UNL     1      -2.072   2.542 -22.292  0.00  0.00    +0.072 A 
ATOM     14  C   UNL     1      -3.243   2.942 -21.894  0.00  0.00    +0.167 A 
ATOM     15  C   UNL     1      -4.132   3.320 -22.765  0.00  0.00    +0.204 A 
ATOM     16  C   UNL     1      -3.850   3.295 -24.034  0.00  0.00    +0.167 A 
ATOM     17  C   UNL     1      -2.678   2.894 -24.431  0.00  0.00    +0.072 A 
BRANCH  14  18
ATOM     18  O   UNL     1      -3.525   2.967 -20.625  0.00  0.00    -0.491 OA
ATOM     19  C   UNL     1      -2.980   3.862 -19.855  0.00  0.00    +0.277 C 
ENDBRANCH  14  18
BRANCH  15  20
ATOM     20  O   UNL     1      -5.302   3.720 -22.367  0.00  0.00    -0.488 OA
ATOM     21  C   UNL     1      -6.178   2.855 -21.949  0.00  0.00    +0.277 C 
ENDBRANCH  15  20
BRANCH  16  22
ATOM     22  O   UNL     1      -4.738   3.672 -24.905  0.00  0.00    -0.491 OA
ATOM     23  C   UNL     1      -4.737   3.156 -26.098  0.00  0.00    +0.277 C 
ENDBRANCH  16  22
ENDBRANCH  10  12
ENDBRANCH   5  10
BRANCH   1  24
ATOM     24  C   UNL     1       3.416   2.214 -21.960  0.00  0.00    +0.038 C 
BRANCH  24  25
ATOM     25  C   UNL     1       4.547   1.967 -22.551  0.00  0.00    +0.005 C 
BRANCH  25  26
ATOM     26  C   UNL     1       5.640   1.880 -21.852  0.00  0.00    +0.000 C 
BRANCH  26  27
ATOM     27  C   UNL     1       5.974   2.843 -21.045  0.00  0.00    +0.000 C 
BRANCH  27  28
ATOM     28  C   UNL     1       6.702   3.830 -21.476  0.00  0.00    +0.000 C 
BRANCH  28  29
ATOM     29  C   UNL     1       7.476   4.473 -20.655  0.00  0.00    +0.000 C 
BRANCH  29  30
ATOM     30  C   UNL     1       7.119   5.636 -20.198  0.00  0.00    -0.000 C 
BRANCH  30  31
ATOM     31  C   UNL     1       7.058   6.659 -20.997  0.00  0.00    -0.000 C 
BRANCH  31  32
ATOM     32  C   UNL     1       6.460   7.748 -20.615  0.00  0.00    -0.000 C 
BRANCH  32  34
ATOM     33  C   UNL     1       4.546   7.972 -21.779  0.00  0.00    +0.004 C 
ATOM     34  C   UNL     1       5.162   7.823 -20.645  0.00  0.00    -0.003 C 
ENDBRANCH  32  34
ENDBRANCH  31  32
ENDBRANCH  30  31
ENDBRANCH  29  30
ENDBRANCH  28  29
ENDBRANCH  27  28
ENDBRANCH  26  27
ENDBRANCH  25  26
ENDBRANCH  24  25
ENDBRANCH   1  24
TORSDOF 15
ENDMDL
MODEL 7
REMARK VINA RESULT:    -7.817      2.280      8.770
REMARK INTER + INTRA:         -15.540
REMARK INTER:                 -13.662
REMARK INTRA:                  -1.878
REMARK UNBOUND:                -0.868
REMARK  Name = CCCCCCCCCCCC1=C(O)C(=O)C=C(Nc2cc(OC)c(OC)c(OC)c2)C1=O                ZINC000100392827
REMARK  19 active torsions:
REMARK  status: ('A' for Active; 'I' for Inactive)
REMARK    1  A    between atoms: C_1  and  C_2
REMARK    2  A    between atoms: C_2  and  C_3
REMARK    3  A    between atoms: C_3  and  C_4
REMARK    4  A    between atoms: C_4  and  C_5
REMARK    5  A    between atoms: C_5  and  C_6
REMARK    6  A    between atoms: C_6  and  C_7
REMARK    7  A    between atoms: C_7  and  C_8
REMARK    8  A    between atoms: C_8  and  C_9
REMARK    9  A    between atoms: C_9  and  C_10
REMARK   10  A    between atoms: C_10  and  C_11
REMARK   11  A    between atoms: C_11  and  C_12
REMARK   12  A    between atoms: C_18  and  N_19
REMARK   13  A    between atoms: N_19  and  C_20
REMARK   14  A    between atoms: C_22  and  O_23
REMARK   15  A    between atoms: O_23  and  C_24
REMARK   16  A    between atoms: C_25  and  O_26
REMARK   17  A    between atoms: O_26  and  C_27
REMARK   18  A    between atoms: C_28  and  O_29
REMARK   19  A    between atoms: O_29  and  C_30
REMARK                            x       y       z     vdW  Elec       q    Type
REMARK                         _______ _______ _______ _____ _____    ______ ____
ROOT
ATOM      1  C   UNL     1       3.590   3.505 -23.151  0.00  0.00    -0.008 C 
ATOM      2  C   UNL     1       3.627   2.299 -23.636  0.00  0.00    +0.228 C 
ATOM      3  C   UNL     1       2.664   1.874 -24.398  0.00  0.00    +0.227 C 
ATOM      4  C   UNL     1       1.662   2.654 -24.674  0.00  0.00    +0.077 C 
ATOM      5  C   UNL     1       1.623   3.860 -24.189  0.00  0.00    +0.022 C 
ATOM      6  O   UNL     1       2.702   0.668 -24.883  0.00  0.00    -0.284 OA
ATOM      7  O   UNL     1       4.630   1.519 -23.359  0.00  0.00    -0.284 OA
ATOM      8  C   UNL     1       2.587   4.285 -23.428  0.00  0.00    -0.112 C 
ATOM      9  O   UNL     1       2.548   5.491 -22.943  0.00  0.00    -0.828 OA
ENDROOT
BRANCH   5  10
ATOM     10  N   UNL     1       0.621   4.640 -24.466  0.00  0.00    -0.315 N 
ATOM     11  H   UNL     1       0.781   5.526 -24.863  0.00  0.00    +0.152 HD
BRANCH  10  12
ATOM     12  C   UNL     1      -0.595   4.249 -24.218  0.00  0.00    +0.038 A 
ATOM     13  C   UNL     1      -1.081   4.356 -23.017  0.00  0.00    +0.072 A 
ATOM     14  C   UNL     1      -2.295   3.966 -22.770  0.00  0.00    +0.167 A 
ATOM     15  C   UNL     1      -3.025   3.467 -23.724  0.00  0.00    +0.204 A 
ATOM     16  C   UNL     1      -2.539   3.359 -24.925  0.00  0.00    +0.167 A 
ATOM     17  C   UNL     1      -1.324   3.750 -25.172  0.00  0.00    +0.072 A 
BRANCH  14  18
ATOM     18  O   UNL     1      -2.781   4.073 -21.569  0.00  0.00    -0.491 OA
ATOM     19  C   UNL     1      -2.499   3.176 -20.671  0.00  0.00    +0.277 C 
ENDBRANCH  14  18
BRANCH  15  20
ATOM     20  O   UNL     1      -4.240   3.076 -23.477  0.00  0.00    -0.488 OA
ATOM     21  C   UNL     1      -5.230   3.906 -23.616  0.00  0.00    +0.277 C 
ENDBRANCH  15  20
BRANCH  16  22
ATOM     22  O   UNL     1      -3.268   2.860 -25.879  0.00  0.00    -0.491 OA
ATOM     23  C   UNL     1      -3.327   3.458 -27.031  0.00  0.00    +0.277 C 
ENDBRANCH  16  22
ENDBRANCH  10  12
ENDBRANCH   5  10
BRANCH   1  24
ATOM     24  C   UNL     1       4.553   3.930 -22.390  0.00  0.00    +0.038 C 
BRANCH  24  25
ATOM     25  C   UNL     1       5.624   4.440 -22.921  0.00  0.00    +0.005 C 
BRANCH  25  26
ATOM     26  C   UNL     1       6.797   4.106 -22.468  0.00  0.00    +0.000 C 
BRANCH  26  27
ATOM     27  C   UNL     1       6.997   4.016 -21.187  0.00  0.00    +0.000 C 
BRANCH  27  28
ATOM     28  C   UNL     1       7.772   4.871 -20.589  0.00  0.00    +0.000 C 
BRANCH  28  29
ATOM     29  C   UNL     1       7.267   5.943 -20.056  0.00  0.00    +0.000 C 
BRANCH  29  30
ATOM     30  C   UNL     1       7.616   7.116 -20.496  0.00  0.00    -0.000 C 
BRANCH  30  31
ATOM     31  C   UNL     1       6.707   7.991 -20.806  0.00  0.00    -0.000 C 
BRANCH  31  32
ATOM     32  C   UNL     1       5.792   7.697 -21.681  0.00  0.00    -0.000 C 
BRANCH  32  34
ATOM     33  C   UNL     1       4.176   8.528 -20.352  0.00  0.00    +0.004 C 
ATOM     34  C   UNL     1       4.576   8.130 -21.522  0.00  0.00    -0.003 C 
ENDBRANCH  32  34
ENDBRANCH  31  32
ENDBRANCH  30  31
ENDBRANCH  29  30
ENDBRANCH  28  29
ENDBRANCH  27  28
ENDBRANCH  26  27
ENDBRANCH  25  26
ENDBRANCH  24  25
ENDBRANCH   1  24
TORSDOF 15
ENDMDL
MODEL 8
REMARK VINA RESULT:    -7.803      1.018      2.521
REMARK INTER + INTRA:         -15.513
REMARK INTER:                 -14.004
REMARK INTRA:                  -1.509
REMARK UNBOUND:                -0.868
REMARK  Name = CCCCCCCCCCCC1=C(O)C(=O)C=C(Nc2cc(OC)c(OC)c(OC)c2)C1=O                ZINC000100392827
REMARK  19 active torsions:
REMARK  status: ('A' for Active; 'I' for Inactive)
REMARK    1  A    between atoms: C_1  and  C_2
REMARK    2  A    between atoms: C_2  and  C_3
REMARK    3  A    between atoms: C_3  and  C_4
REMARK    4  A    between atoms: C_4  and  C_5
REMARK    5  A    between atoms: C_5  and  C_6
REMARK    6  A    between atoms: C_6  and  C_7
REMARK    7  A    between atoms: C_7  and  C_8
REMARK    8  A    between atoms: C_8  and  C_9
REMARK    9  A    between atoms: C_9  and  C_10
REMARK   10  A    between atoms: C_10  and  C_11
REMARK   11  A    between atoms: C_11  and  C_12
REMARK   12  A    between atoms: C_18  and  N_19
REMARK   13  A    between atoms: N_19  and  C_20
REMARK   14  A    between atoms: C_22  and  O_23
REMARK   15  A    between atoms: O_23  and  C_24
REMARK   16  A    between atoms: C_25  and  O_26
REMARK   17  A    between atoms: O_26  and  C_27
REMARK   18  A    between atoms: C_28  and  O_29
REMARK   19  A    between atoms: O_29  and  C_30
REMARK                            x       y       z     vdW  Elec       q    Type
REMARK                         _______ _______ _______ _____ _____    ______ ____
ROOT
ATOM      1  C   UNL     1       1.225   1.928 -22.621  0.00  0.00    -0.008 C 
ATOM      2  C   UNL     1       1.007   2.155 -23.883  0.00  0.00    +0.228 C 
ATOM      3  C   UNL     1       2.004   2.379 -24.686  0.00  0.00    +0.227 C 
ATOM      4  C   UNL     1       3.221   2.376 -24.227  0.00  0.00    +0.077 C 
ATOM      5  C   UNL     1       3.440   2.149 -22.966  0.00  0.00    +0.022 C 
ATOM      6  O   UNL     1       1.785   2.606 -25.947  0.00  0.00    -0.284 OA
ATOM      7  O   UNL     1      -0.210   2.159 -24.341  0.00  0.00    -0.284 OA
ATOM      8  C   UNL     1       2.443   1.925 -22.163  0.00  0.00    -0.112 C 
ATOM      9  O   UNL     1       2.662   1.698 -20.902  0.00  0.00    -0.828 OA
ENDROOT
BRANCH   5  10
ATOM     10  N   UNL     1       4.656   2.145 -22.508  0.00  0.00    -0.315 N 
ATOM     11  H   UNL     1       5.010   1.346 -22.056  0.00  0.00    +0.152 HD
BRANCH  10  12
ATOM     12  C   UNL     1       5.406   3.199 -22.648  0.00  0.00    +0.038 A 
ATOM     13  C   UNL     1       6.633   3.074 -23.061  0.00  0.00    +0.072 A 
ATOM     14  C   UNL     1       7.382   4.127 -23.201  0.00  0.00    +0.167 A 
ATOM     15  C   UNL     1       6.905   5.306 -22.927  0.00  0.00    +0.204 A 
ATOM     16  C   UNL     1       5.678   5.430 -22.513  0.00  0.00    +0.167 A 
ATOM     17  C   UNL     1       4.929   4.376 -22.374  0.00  0.00    +0.072 A 
BRANCH  14  18
ATOM     18  O   UNL     1       8.608   4.002 -23.614  0.00  0.00    -0.491 OA
ATOM     19  C   UNL     1       8.886   3.182 -24.584  0.00  0.00    +0.277 C 
ENDBRANCH  14  18
BRANCH  15  20
ATOM     20  O   UNL     1       7.654   6.359 -23.066  0.00  0.00    -0.488 OA
ATOM     21  C   UNL     1       8.460   6.713 -22.110  0.00  0.00    +0.277 C 
ENDBRANCH  15  20
BRANCH  16  22
ATOM     22  O   UNL     1       5.201   6.608 -22.239  0.00  0.00    -0.491 OA
ATOM     23  C   UNL     1       3.916   6.797 -22.208  0.00  0.00    +0.277 C 
ENDBRANCH  16  22
ENDBRANCH  10  12
ENDBRANCH   5  10
BRANCH   1  24
ATOM     24  C   UNL     1       0.228   1.705 -21.818  0.00  0.00    +0.038 C 
BRANCH  24  25
ATOM     25  C   UNL     1      -0.632   2.648 -21.572  0.00  0.00    +0.005 C 
BRANCH  25  26
ATOM     26  C   UNL     1      -1.848   2.345 -21.227  0.00  0.00    +0.000 C 
BRANCH  26  27
ATOM     27  C   UNL     1      -2.639   3.264 -20.758  0.00  0.00    +0.000 C 
BRANCH  27  28
ATOM     28  C   UNL     1      -3.912   3.028 -20.643  0.00  0.00    +0.000 C 
BRANCH  28  29
ATOM     29  C   UNL     1      -4.584   2.575 -21.659  0.00  0.00    +0.000 C 
BRANCH  29  30
ATOM     30  C   UNL     1      -5.566   3.270 -22.152  0.00  0.00    -0.000 C 
BRANCH  30  31
ATOM     31  C   UNL     1      -5.434   3.857 -23.304  0.00  0.00    -0.000 C 
BRANCH  31  32
ATOM     32  C   UNL     1      -4.452   3.532 -24.091  0.00  0.00    -0.000 C 
BRANCH  32  34
ATOM     33  C   UNL     1      -2.497   4.633 -24.288  0.00  0.00    +0.004 C 
ATOM     34  C   UNL     1      -3.733   4.459 -24.651  0.00  0.00    -0.003 C 
ENDBRANCH  32  34
ENDBRANCH  31  32
ENDBRANCH  30  31
ENDBRANCH  29  30
ENDBRANCH  28  29
ENDBRANCH  27  28
ENDBRANCH  26  27
ENDBRANCH  25  26
ENDBRANCH  24  25
ENDBRANCH   1  24
TORSDOF 15
ENDMDL
MODEL 9
REMARK VINA RESULT:    -7.711      2.281      8.674
REMARK INTER + INTRA:         -15.341
REMARK INTER:                 -13.662
REMARK INTRA:                  -1.679
REMARK UNBOUND:                -0.868
REMARK  Name = CCCCCCCCCCCC1=C(O)C(=O)C=C(Nc2cc(OC)c(OC)c(OC)c2)C1=O                ZINC000100392827
REMARK  19 active torsions:
REMARK  status: ('A' for Active; 'I' for Inactive)
REMARK    1  A    between atoms: C_1  and  C_2
REMARK    2  A    between atoms: C_2  and  C_3
REMARK    3  A    between atoms: C_3  and  C_4
REMARK    4  A    between atoms: C_4  and  C_5
REMARK    5  A    between atoms: C_5  and  C_6
REMARK    6  A    between atoms: C_6  and  C_7
REMARK    7  A    between atoms: C_7  and  C_8
REMARK    8  A    between atoms: C_8  and  C_9
REMARK    9  A    between atoms: C_9  and  C_10
REMARK   10  A    between atoms: C_10  and  C_11
REMARK   11  A    between atoms: C_11  and  C_12
REMARK   12  A    between atoms: C_18  and  N_19
REMARK   13  A    between atoms: N_19  and  C_20
REMARK   14  A    between atoms: C_22  and  O_23
REMARK   15  A    between atoms: O_23  and  C_24
REMARK   16  A    between atoms: C_25  and  O_26
REMARK   17  A    between atoms: O_26  and  C_27
REMARK   18  A    between atoms: C_28  and  O_29
REMARK   19  A    between atoms: O_29  and  C_30
REMARK                            x       y       z     vdW  Elec       q    Type
REMARK                         _______ _______ _______ _____ _____    ______ ____
ROOT
ATOM      1  C   UNL     1       3.666   3.624 -23.258  0.00  0.00    -0.008 C 
ATOM      2  C   UNL     1       3.674   2.386 -23.654  0.00  0.00    +0.228 C 
ATOM      3  C   UNL     1       2.666   1.910 -24.322  0.00  0.00    +0.227 C 
ATOM      4  C   UNL     1       1.650   2.673 -24.595  0.00  0.00    +0.077 C 
ATOM      5  C   UNL     1       1.641   3.911 -24.200  0.00  0.00    +0.022 C 
ATOM      6  O   UNL     1       2.675   0.672 -24.717  0.00  0.00    -0.284 OA
ATOM      7  O   UNL     1       4.691   1.623 -23.380  0.00  0.00    -0.284 OA
ATOM      8  C   UNL     1       2.649   4.387 -23.531  0.00  0.00    -0.112 C 
ATOM      9  O   UNL     1       2.640   5.625 -23.136  0.00  0.00    -0.828 OA
ENDROOT
BRANCH   5  10
ATOM     10  N   UNL     1       0.625   4.674 -24.473  0.00  0.00    -0.315 N 
ATOM     11  H   UNL     1       0.766   5.551 -24.895  0.00  0.00    +0.152 HD
BRANCH  10  12
ATOM     12  C   UNL     1      -0.581   4.276 -24.188  0.00  0.00    +0.038 A 
ATOM     13  C   UNL     1      -1.331   3.759 -25.115  0.00  0.00    +0.072 A 
ATOM     14  C   UNL     1      -2.536   3.363 -24.831  0.00  0.00    +0.167 A 
ATOM     15  C   UNL     1      -2.990   3.482 -23.618  0.00  0.00    +0.204 A 
ATOM     16  C   UNL     1      -2.240   3.999 -22.691  0.00  0.00    +0.167 A 
ATOM     17  C   UNL     1      -1.035   4.396 -22.976  0.00  0.00    +0.072 A 
BRANCH  14  18
ATOM     18  O   UNL     1      -3.286   2.846 -25.758  0.00  0.00    -0.491 OA
ATOM     19  C   UNL     1      -3.326   3.389 -26.939  0.00  0.00    +0.277 C 
ENDBRANCH  14  18
BRANCH  15  20
ATOM     20  O   UNL     1      -4.195   3.086 -23.333  0.00  0.00    -0.488 OA
ATOM     21  C   UNL     1      -5.208   3.867 -23.564  0.00  0.00    +0.277 C 
ENDBRANCH  15  20
BRANCH  16  22
ATOM     22  O   UNL     1      -2.694   4.119 -21.479  0.00  0.00    -0.491 OA
ATOM     23  C   UNL     1      -2.425   3.209 -20.591  0.00  0.00    +0.277 C 
ENDBRANCH  16  22
ENDBRANCH  10  12
ENDBRANCH   5  10
BRANCH   1  24
ATOM     24  C   UNL     1       4.674   4.100 -22.589  0.00  0.00    +0.038 C 
BRANCH  24  25
ATOM     25  C   UNL     1       5.743   4.491 -23.217  0.00  0.00    +0.005 C 
BRANCH  25  26
ATOM     26  C   UNL     1       6.913   4.330 -22.671  0.00  0.00    +0.000 C 
BRANCH  26  27
ATOM     27  C   UNL     1       7.012   4.140 -21.390  0.00  0.00    +0.000 C 
BRANCH  27  28
ATOM     28  C   UNL     1       7.743   4.937 -20.669  0.00  0.00    +0.000 C 
BRANCH  28  29
ATOM     29  C   UNL     1       7.181   5.861 -19.948  0.00  0.00    +0.000 C 
BRANCH  29  30
ATOM     30  C   UNL     1       7.304   7.112 -20.281  0.00  0.00    -0.000 C 
BRANCH  30  31
ATOM     31  C   UNL     1       6.402   7.679 -21.025  0.00  0.00    -0.000 C 
BRANCH  31  32
ATOM     32  C   UNL     1       5.158   7.682 -20.650  0.00  0.00    -0.000 C 
BRANCH  32  34
ATOM     33  C   UNL     1       4.307   9.516 -21.643  0.00  0.00    +0.004 C 
ATOM     34  C   UNL     1       4.505   8.805 -20.573  0.00  0.00    -0.003 C 
ENDBRANCH  32  34
ENDBRANCH  31  32
ENDBRANCH  30  31
ENDBRANCH  29  30
ENDBRANCH  28  29
ENDBRANCH  27  28
ENDBRANCH  26  27
ENDBRANCH  25  26
ENDBRANCH  24  25
ENDBRANCH   1  24
TORSDOF 15
ENDMDL
