MODEL 1
REMARK VINA RESULT:   -10.139      0.000      0.000
REMARK INTER + INTRA:         -10.139
REMARK INTER:                 -10.139
REMARK INTRA:                   0.000
REMARK UNBOUND:                 0.000
REMARK  Name = ZINC000030726283
REMARK  2 active torsions:
REMARK  status: ('A' for Active; 'I' for Inactive)
REMARK    1  A    between atoms: C_10  and  C_11
REMARK    2  A    between atoms: C_15  and  C_16
REMARK                            x       y       z     vdW  Elec       q    Type
REMARK                         _______ _______ _______ _____ _____    ______ ____
ROOT
ATOM      1  C   UNL     1       0.705   2.441 -23.024  0.00  0.00    +0.020 C 
ATOM      2  C   UNL     1      -0.058   2.955 -23.956  0.00  0.00    +0.036 C 
ATOM      3  C   UNL     1       0.330   3.344 -25.145  0.00  0.00    +0.335 C 
ATOM      4  O   UNL     1      -0.720   3.801 -25.786  0.00  0.00    -0.455 OA
ATOM      5  C   UNL     1      -1.758   3.694 -24.993  0.00  0.00    +0.216 C 
ATOM      6  C   UNL     1      -3.106   4.039 -25.198  0.00  0.00    +0.192 C 
ATOM      7  O   UNL     1      -4.343   4.384 -25.459  0.00  0.00    -0.361 OA
ATOM      8  C   UNL     1      -4.038   3.867 -24.291  0.00  0.00    +0.097 C 
ATOM      9  C   UNL     1      -3.353   3.346 -23.303  0.00  0.00    +0.044 C 
ATOM     10  C   UNL     1      -5.305   3.902 -23.744  0.00  0.00    +0.041 C 
ATOM     11  C   UNL     1      -5.318   3.465 -22.619  0.00  0.00    +0.030 C 
ATOM     12  C   UNL     1      -4.179   3.168 -22.432  0.00  0.00    -0.028 C 
ATOM     13  C   UNL     1      -3.607   2.684 -21.481  0.00  0.00    -0.077 C 
ATOM     14  C   UNL     1      -4.185   2.361 -20.364  0.00  0.00    +0.039 C 
ATOM     15  C   UNL     1      -2.374   2.556 -21.772  0.00  0.00    +0.031 C 
ATOM     16  C   UNL     1      -2.303   3.023 -23.001  0.00  0.00    +0.016 C 
ATOM     17  O   UNL     1       1.555   3.286 -25.612  0.00  0.00    -0.245 OA
ATOM     18  C   UNL     1      -1.349   3.173 -23.865  0.00  0.00    +0.069 C 
ENDROOT
TORSDOF 0
ENDMDL
MODEL 2
REMARK VINA RESULT:    -9.914      2.144      3.261
REMARK INTER + INTRA:          -9.914
REMARK INTER:                  -9.914
REMARK INTRA:                   0.000
REMARK UNBOUND:                 0.000
REMARK  Name = ZINC000030726283
REMARK  2 active torsions:
REMARK  status: ('A' for Active; 'I' for Inactive)
REMARK    1  A    between atoms: C_10  and  C_11
REMARK    2  A    between atoms: C_15  and  C_16
REMARK                            x       y       z     vdW  Elec       q    Type
REMARK                         _______ _______ _______ _____ _____    ______ ____
ROOT
ATOM      1  C   UNL     1       0.774   2.583 -24.029  0.00  0.00    +0.020 C 
ATOM      2  C   UNL     1       0.048   2.333 -22.967  0.00  0.00    +0.036 C 
ATOM      3  C   UNL     1       0.470   1.790 -21.853  0.00  0.00    +0.335 C 
ATOM      4  O   UNL     1      -0.549   1.705 -21.031  0.00  0.00    -0.455 OA
ATOM      5  C   UNL     1      -1.602   2.197 -21.637  0.00  0.00    +0.216 C 
ATOM      6  C   UNL     1      -2.930   2.337 -21.195  0.00  0.00    +0.192 C 
ATOM      7  O   UNL     1      -4.146   2.437 -20.719  0.00  0.00    -0.361 OA
ATOM      8  C   UNL     1      -3.881   2.858 -21.934  0.00  0.00    +0.097 C 
ATOM      9  C   UNL     1      -3.234   3.142 -23.037  0.00  0.00    +0.044 C 
ATOM     10  C   UNL     1      -5.153   3.288 -22.256  0.00  0.00    +0.041 C 
ATOM     11  C   UNL     1      -5.202   3.744 -23.372  0.00  0.00    +0.030 C 
ATOM     12  C   UNL     1      -4.080   3.631 -23.758  0.00  0.00    -0.028 C 
ATOM     13  C   UNL     1      -3.544   3.919 -24.805  0.00  0.00    -0.077 C 
ATOM     14  C   UNL     1      -4.152   4.465 -25.814  0.00  0.00    +0.039 C 
ATOM     15  C   UNL     1      -2.314   3.597 -24.732  0.00  0.00    +0.031 C 
ATOM     16  C   UNL     1      -2.205   3.090 -23.522  0.00  0.00    +0.016 C 
ATOM     17  O   UNL     1       1.697   1.398 -21.604  0.00  0.00    -0.245 OA
ATOM     18  C   UNL     1      -1.233   2.584 -22.831  0.00  0.00    +0.069 C 
ENDROOT
TORSDOF 0
ENDMDL
MODEL 3
REMARK VINA RESULT:    -9.810      1.368      4.474
REMARK INTER + INTRA:          -9.810
REMARK INTER:                  -9.810
REMARK INTRA:                   0.000
REMARK UNBOUND:                 0.000
REMARK  Name = ZINC000030726283
REMARK  2 active torsions:
REMARK  status: ('A' for Active; 'I' for Inactive)
REMARK    1  A    between atoms: C_10  and  C_11
REMARK    2  A    between atoms: C_15  and  C_16
REMARK                            x       y       z     vdW  Elec       q    Type
REMARK                         _______ _______ _______ _____ _____    ______ ____
ROOT
ATOM      1  C   UNL     1      -4.113   2.311 -20.525  0.00  0.00    +0.020 C 
ATOM      2  C   UNL     1      -4.008   2.776 -21.746  0.00  0.00    +0.036 C 
ATOM      3  C   UNL     1      -4.979   3.277 -22.468  0.00  0.00    +0.335 C 
ATOM      4  O   UNL     1      -4.482   3.631 -23.629  0.00  0.00    -0.455 OA
ATOM      5  C   UNL     1      -3.202   3.350 -23.625  0.00  0.00    +0.216 C 
ATOM      6  C   UNL     1      -2.221   3.531 -24.617  0.00  0.00    +0.192 C 
ATOM      7  O   UNL     1      -1.362   3.730 -25.585  0.00  0.00    -0.361 OA
ATOM      8  C   UNL     1      -0.965   3.192 -24.456  0.00  0.00    +0.097 C 
ATOM      9  C   UNL     1      -0.975   2.708 -23.238  0.00  0.00    +0.044 C 
ATOM     10  C   UNL     1       0.365   3.034 -24.790  0.00  0.00    +0.041 C 
ATOM     11  C   UNL     1       0.997   2.537 -23.891  0.00  0.00    +0.030 C 
ATOM     12  C   UNL     1       0.176   2.377 -23.042  0.00  0.00    -0.028 C 
ATOM     13  C   UNL     1       0.237   1.917 -21.923  0.00  0.00    -0.077 C 
ATOM     14  C   UNL     1       1.323   1.460 -21.376  0.00  0.00    +0.039 C 
ATOM     15  C   UNL     1      -0.924   1.963 -21.403  0.00  0.00    +0.031 C 
ATOM     16  C   UNL     1      -1.660   2.503 -22.351  0.00  0.00    +0.016 C 
ATOM     17  O   UNL     1      -6.231   3.401 -22.094  0.00  0.00    -0.245 OA
ATOM     18  C   UNL     1      -2.911   2.822 -22.464  0.00  0.00    +0.069 C 
ENDROOT
TORSDOF 0
ENDMDL
MODEL 4
REMARK VINA RESULT:    -8.746      1.323      4.703
REMARK INTER + INTRA:          -8.746
REMARK INTER:                  -8.746
REMARK INTRA:                   0.000
REMARK UNBOUND:                 0.000
REMARK  Name = ZINC000030726283
REMARK  2 active torsions:
REMARK  status: ('A' for Active; 'I' for Inactive)
REMARK    1  A    between atoms: C_10  and  C_11
REMARK    2  A    between atoms: C_15  and  C_16
REMARK                            x       y       z     vdW  Elec       q    Type
REMARK                         _______ _______ _______ _____ _____    ______ ____
ROOT
ATOM      1  C   UNL     1      -3.323   2.555 -21.848  0.00  0.00    +0.020 C 
ATOM      2  C   UNL     1      -2.824   3.072 -22.944  0.00  0.00    +0.036 C 
ATOM      3  C   UNL     1      -3.498   3.687 -23.884  0.00  0.00    +0.335 C 
ATOM      4  O   UNL     1      -2.652   4.061 -24.814  0.00  0.00    -0.455 OA
ATOM      5  C   UNL     1      -1.453   3.677 -24.448  0.00  0.00    +0.216 C 
ATOM      6  C   UNL     1      -0.208   3.830 -25.086  0.00  0.00    +0.192 C 
ATOM      7  O   UNL     1       0.915   4.009 -25.736  0.00  0.00    -0.361 OA
ATOM      8  C   UNL     1       0.917   3.382 -24.582  0.00  0.00    +0.097 C 
ATOM      9  C   UNL     1       0.508   2.838 -23.463  0.00  0.00    +0.044 C 
ATOM     10  C   UNL     1       2.274   3.136 -24.515  0.00  0.00    +0.041 C 
ATOM     11  C   UNL     1       2.571   2.543 -23.508  0.00  0.00    +0.030 C 
ATOM     12  C   UNL     1       1.523   2.406 -22.956  0.00  0.00    -0.028 C 
ATOM     13  C   UNL     1       1.214   1.884 -21.908  0.00  0.00    -0.077 C 
ATOM     14  C   UNL     1       2.053   1.314 -21.097  0.00  0.00    +0.039 C 
ATOM     15  C   UNL     1      -0.045   1.997 -21.756  0.00  0.00    +0.031 C 
ATOM     16  C   UNL     1      -0.425   2.643 -22.839  0.00  0.00    +0.016 C 
ATOM     17  O   UNL     1      -4.795   3.892 -23.892  0.00  0.00    -0.245 OA
ATOM     18  C   UNL     1      -1.560   3.067 -23.296  0.00  0.00    +0.069 C 
ENDROOT
TORSDOF 0
ENDMDL
MODEL 5
REMARK VINA RESULT:    -8.627      3.298      6.904
REMARK INTER + INTRA:          -8.627
REMARK INTER:                  -8.627
REMARK INTRA:                   0.000
REMARK UNBOUND:                 0.000
REMARK  Name = ZINC000030726283
REMARK  2 active torsions:
REMARK  status: ('A' for Active; 'I' for Inactive)
REMARK    1  A    between atoms: C_10  and  C_11
REMARK    2  A    between atoms: C_15  and  C_16
REMARK                            x       y       z     vdW  Elec       q    Type
REMARK                         _______ _______ _______ _____ _____    ______ ____
ROOT
ATOM      1  C   UNL     1      -0.084   4.641 -23.693  0.00  0.00    +0.020 C 
ATOM      2  C   UNL     1       0.130   3.422 -23.263  0.00  0.00    +0.036 C 
ATOM      3  C   UNL     1      -0.780   2.497 -23.079  0.00  0.00    +0.335 C 
ATOM      4  O   UNL     1      -0.178   1.416 -22.642  0.00  0.00    -0.455 OA
ATOM      5  C   UNL     1       1.104   1.673 -22.556  0.00  0.00    +0.216 C 
ATOM      6  C   UNL     1       2.176   0.859 -22.144  0.00  0.00    +0.192 C 
ATOM      7  O   UNL     1       3.123   0.045 -21.749  0.00  0.00    -0.361 OA
ATOM      8  C   UNL     1       3.421   1.271 -22.114  0.00  0.00    +0.097 C 
ATOM      9  C   UNL     1       3.302   2.505 -22.537  0.00  0.00    +0.044 C 
ATOM     10  C   UNL     1       4.783   1.193 -21.907  0.00  0.00    +0.041 C 
ATOM     11  C   UNL     1       5.336   2.231 -22.175  0.00  0.00    +0.030 C 
ATOM     12  C   UNL     1       4.438   2.932 -22.526  0.00  0.00    -0.028 C 
ATOM     13  C   UNL     1       4.400   4.080 -22.910  0.00  0.00    -0.077 C 
ATOM     14  C   UNL     1       5.439   4.850 -23.025  0.00  0.00    +0.039 C 
ATOM     15  C   UNL     1       3.190   4.379 -23.170  0.00  0.00    +0.031 C 
ATOM     16  C   UNL     1       2.537   3.271 -22.892  0.00  0.00    +0.016 C 
ATOM     17  O   UNL     1      -2.067   2.630 -23.295  0.00  0.00    -0.245 OA
ATOM     18  C   UNL     1       1.293   2.909 -22.938  0.00  0.00    +0.069 C 
ENDROOT
TORSDOF 0
ENDMDL
MODEL 6
REMARK VINA RESULT:    -8.623      2.697      4.188
REMARK INTER + INTRA:          -8.623
REMARK INTER:                  -8.623
REMARK INTRA:                   0.000
REMARK UNBOUND:                 0.000
REMARK  Name = ZINC000030726283
REMARK  2 active torsions:
REMARK  status: ('A' for Active; 'I' for Inactive)
REMARK    1  A    between atoms: C_10  and  C_11
REMARK    2  A    between atoms: C_15  and  C_16
REMARK                            x       y       z     vdW  Elec       q    Type
REMARK                         _______ _______ _______ _____ _____    ______ ____
ROOT
ATOM      1  C   UNL     1       2.934   0.392 -21.778  0.00  0.00    +0.020 C 
ATOM      2  C   UNL     1       3.080   1.560 -22.354  0.00  0.00    +0.036 C 
ATOM      3  C   UNL     1       4.203   2.069 -22.793  0.00  0.00    +0.335 C 
ATOM      4  O   UNL     1       3.943   3.250 -23.303  0.00  0.00    -0.455 OA
ATOM      5  C   UNL     1       2.657   3.470 -23.179  0.00  0.00    +0.216 C 
ATOM      6  C   UNL     1       1.876   4.576 -23.562  0.00  0.00    +0.192 C 
ATOM      7  O   UNL     1       1.212   5.638 -23.945  0.00  0.00    -0.361 OA
ATOM      8  C   UNL     1       0.581   4.644 -23.365  0.00  0.00    +0.097 C 
ATOM      9  C   UNL     1       0.341   3.496 -22.781  0.00  0.00    +0.044 C 
ATOM     10  C   UNL     1      -0.686   5.192 -23.398  0.00  0.00    +0.041 C 
ATOM     11  C   UNL     1      -1.505   4.455 -22.906  0.00  0.00    +0.030 C 
ATOM     12  C   UNL     1      -0.855   3.512 -22.577  0.00  0.00    -0.028 C 
ATOM     13  C   UNL     1      -1.147   2.469 -22.034  0.00  0.00    -0.077 C 
ATOM     14  C   UNL     1      -2.349   2.144 -21.668  0.00  0.00    +0.039 C 
ATOM     15  C   UNL     1      -0.088   1.776 -21.895  0.00  0.00    +0.031 C 
ATOM     16  C   UNL     1       0.846   2.540 -22.421  0.00  0.00    +0.016 C 
ATOM     17  O   UNL     1       5.383   1.498 -22.733  0.00  0.00    -0.245 OA
ATOM     18  C   UNL     1       2.125   2.428 -22.594  0.00  0.00    +0.069 C 
ENDROOT
TORSDOF 0
ENDMDL
MODEL 7
REMARK VINA RESULT:    -8.475      1.954      5.215
REMARK INTER + INTRA:          -8.475
REMARK INTER:                  -8.475
REMARK INTRA:                   0.000
REMARK UNBOUND:                 0.000
REMARK  Name = ZINC000030726283
REMARK  2 active torsions:
REMARK  status: ('A' for Active; 'I' for Inactive)
REMARK    1  A    between atoms: C_10  and  C_11
REMARK    2  A    between atoms: C_15  and  C_16
REMARK                            x       y       z     vdW  Elec       q    Type
REMARK                         _______ _______ _______ _____ _____    ______ ____
ROOT
ATOM      1  C   UNL     1      -2.420   1.784 -21.666  0.00  0.00    +0.020 C 
ATOM      2  C   UNL     1      -2.000   2.781 -22.404  0.00  0.00    +0.036 C 
ATOM      3  C   UNL     1      -2.753   3.679 -22.990  0.00  0.00    +0.335 C 
ATOM      4  O   UNL     1      -1.968   4.509 -23.634  0.00  0.00    -0.455 OA
ATOM      5  C   UNL     1      -0.729   4.125 -23.447  0.00  0.00    +0.216 C 
ATOM      6  C   UNL     1       0.480   4.670 -23.917  0.00  0.00    +0.192 C 
ATOM      7  O   UNL     1       1.565   5.230 -24.390  0.00  0.00    -0.361 OA
ATOM      8  C   UNL     1       1.655   4.160 -23.635  0.00  0.00    +0.097 C 
ATOM      9  C   UNL     1       1.327   3.137 -22.885  0.00  0.00    +0.044 C 
ATOM     10  C   UNL     1       3.031   4.046 -23.649  0.00  0.00    +0.041 C 
ATOM     11  C   UNL     1       3.408   3.100 -23.002  0.00  0.00    +0.030 C 
ATOM     12  C   UNL     1       2.391   2.628 -22.597  0.00  0.00    -0.028 C 
ATOM     13  C   UNL     1       2.158   1.667 -21.898  0.00  0.00    -0.077 C 
ATOM     14  C   UNL     1       3.067   0.883 -21.403  0.00  0.00    +0.039 C 
ATOM     15  C   UNL     1       0.898   1.574 -21.745  0.00  0.00    +0.031 C 
ATOM     16  C   UNL     1       0.432   2.593 -22.437  0.00  0.00    +0.016 C 
ATOM     17  O   UNL     1      -4.063   3.736 -22.940  0.00  0.00    -0.245 OA
ATOM     18  C   UNL     1      -0.750   3.060 -22.688  0.00  0.00    +0.069 C 
ENDROOT
TORSDOF 0
ENDMDL
MODEL 8
REMARK VINA RESULT:    -8.029      3.447      5.367
REMARK INTER + INTRA:          -8.029
REMARK INTER:                  -8.029
REMARK INTRA:                   0.000
REMARK UNBOUND:                 0.000
REMARK  Name = ZINC000030726283
REMARK  2 active torsions:
REMARK  status: ('A' for Active; 'I' for Inactive)
REMARK    1  A    between atoms: C_10  and  C_11
REMARK    2  A    between atoms: C_15  and  C_16
REMARK                            x       y       z     vdW  Elec       q    Type
REMARK                         _______ _______ _______ _____ _____    ______ ____
ROOT
ATOM      1  C   UNL     1       4.739   3.222 -23.642  0.00  0.00    +0.020 C 
ATOM      2  C   UNL     1       4.113   2.629 -22.655  0.00  0.00    +0.036 C 
ATOM      3  C   UNL     1       4.667   2.112 -21.587  0.00  0.00    +0.335 C 
ATOM      4  O   UNL     1       3.715   1.612 -20.836  0.00  0.00    -0.455 OA
ATOM      5  C   UNL     1       2.570   1.821 -21.440  0.00  0.00    +0.216 C 
ATOM      6  C   UNL     1       1.259   1.483 -21.058  0.00  0.00    +0.192 C 
ATOM      7  O   UNL     1       0.066   1.139 -20.640  0.00  0.00    -0.361 OA
ATOM      8  C   UNL     1       0.204   1.767 -21.784  0.00  0.00    +0.097 C 
ATOM      9  C   UNL     1       0.745   2.373 -22.812  0.00  0.00    +0.044 C 
ATOM     10  C   UNL     1      -1.133   1.814 -22.124  0.00  0.00    +0.041 C 
ATOM     11  C   UNL     1      -1.306   2.365 -23.183  0.00  0.00    +0.030 C 
ATOM     12  C   UNL     1      -0.200   2.657 -23.519  0.00  0.00    -0.028 C 
ATOM     13  C   UNL     1       0.234   3.226 -24.496  0.00  0.00    -0.077 C 
ATOM     14  C   UNL     1      -0.500   3.674 -25.470  0.00  0.00    +0.039 C 
ATOM     15  C   UNL     1       1.501   3.298 -24.393  0.00  0.00    +0.031 C 
ATOM     16  C   UNL     1       1.746   2.706 -23.243  0.00  0.00    +0.016 C 
ATOM     17  O   UNL     1       5.951   2.097 -21.318  0.00  0.00    -0.245 OA
ATOM     18  C   UNL     1       2.816   2.448 -22.561  0.00  0.00    +0.069 C 
ENDROOT
TORSDOF 0
ENDMDL
MODEL 9
REMARK VINA RESULT:    -7.267      2.746      4.711
REMARK INTER + INTRA:          -7.267
REMARK INTER:                  -7.267
REMARK INTRA:                   0.000
REMARK UNBOUND:                 0.000
REMARK  Name = ZINC000030726283
REMARK  2 active torsions:
REMARK  status: ('A' for Active; 'I' for Inactive)
REMARK    1  A    between atoms: C_10  and  C_11
REMARK    2  A    between atoms: C_15  and  C_16
REMARK                            x       y       z     vdW  Elec       q    Type
REMARK                         _______ _______ _______ _____ _____    ______ ____
ROOT
ATOM      1  C   UNL     1       3.431   2.057 -21.709  0.00  0.00    +0.020 C 
ATOM      2  C   UNL     1       2.179   1.876 -21.368  0.00  0.00    +0.036 C 
ATOM      3  C   UNL     1       1.752   1.329 -20.257  0.00  0.00    +0.335 C 
ATOM      4  O   UNL     1       0.440   1.325 -20.283  0.00  0.00    -0.455 OA
ATOM      5  C   UNL     1       0.056   1.871 -21.411  0.00  0.00    +0.216 C 
ATOM      6  C   UNL     1      -1.234   2.105 -21.922  0.00  0.00    +0.192 C 
ATOM      7  O   UNL     1      -2.463   2.292 -22.335  0.00  0.00    -0.361 OA
ATOM      8  C   UNL     1      -1.455   2.670 -23.085  0.00  0.00    +0.097 C 
ATOM      9  C   UNL     1      -0.234   2.890 -23.508  0.00  0.00    +0.044 C 
ATOM     10  C   UNL     1      -2.193   3.174 -24.137  0.00  0.00    +0.041 C 
ATOM     11  C   UNL     1      -1.486   3.609 -25.012  0.00  0.00    +0.030 C 
ATOM     12  C   UNL     1      -0.387   3.417 -24.591  0.00  0.00    -0.028 C 
ATOM     13  C   UNL     1       0.712   3.650 -25.041  0.00  0.00    -0.077 C 
ATOM     14  C   UNL     1       0.929   4.213 -26.191  0.00  0.00    +0.039 C 
ATOM     15  C   UNL     1       1.585   3.252 -24.204  0.00  0.00    +0.031 C 
ATOM     16  C   UNL     1       0.860   2.763 -23.220  0.00  0.00    +0.016 C 
ATOM     17  O   UNL     1       2.507   0.865 -19.288  0.00  0.00    -0.245 OA
ATOM     18  C   UNL     1       1.128   2.210 -22.079  0.00  0.00    +0.069 C 
ENDROOT
TORSDOF 0
ENDMDL
