MODEL 1
REMARK VINA RESULT:    -8.862      0.000      0.000
REMARK INTER + INTRA:          -9.707
REMARK INTER:                 -10.204
REMARK INTRA:                   0.497
REMARK UNBOUND:                 0.191
REMARK  Name = ZINC000000338381
REMARK  3 active torsions:
REMARK  status: ('A' for Active; 'I' for Inactive)
REMARK    1  A    between atoms: C_1  and  N_2
REMARK    2  A    between atoms: N_2  and  C_14
REMARK    3  A    between atoms: C_3  and  C_5
REMARK                            x       y       z     vdW  Elec       q    Type
REMARK                         _______ _______ _______ _____ _____    ______ ____
ROOT
ATOM      1  C   UNL     1       0.448   4.194 -23.113  0.00  0.00    +0.138 C 
ATOM      2  N   UNL     1       0.771   2.955 -22.887  0.00  0.00    -0.269 N 
ATOM      3  C   UNL     1      -0.158   2.068 -22.689  0.00  0.00    +0.267 C 
ATOM      4  O   UNL     1       0.164   0.828 -22.463  0.00  0.00    -0.268 OA
ENDROOT
BRANCH   3   5
ATOM      5  C   UNL     1      -1.409   2.418 -22.717  0.00  0.00    +0.103 A 
ATOM      6  C   UNL     1      -2.251   2.328 -21.729  0.00  0.00    +0.040 A 
ATOM      7  C   UNL     1      -3.401   2.775 -22.140  0.00  0.00    +0.000 A 
ATOM      8  C   UNL     1      -4.550   2.896 -21.544  0.00  0.00    +0.010 A 
ATOM      9  C   UNL     1      -5.568   3.382 -22.188  0.00  0.00    +0.001 A 
ATOM     10  C   UNL     1      -5.438   3.749 -23.430  0.00  0.00    +0.002 A 
ATOM     11  C   UNL     1      -4.289   3.627 -24.024  0.00  0.00    +0.026 A 
ATOM     12  C   UNL     1      -3.270   3.141 -23.380  0.00  0.00    +0.047 A 
ATOM     13  N   UNL     1      -2.040   2.920 -23.737  0.00  0.00    -0.351 N 
ATOM     14  H   UNL     1      -1.652   3.102 -24.624  0.00  0.00    +0.166 HD
ENDBRANCH   3   5
BRANCH   2  15
ATOM     15  C   UNL     1       2.023   2.604 -22.859  0.00  0.00    +0.036 A 
ATOM     16  C   UNL     1       2.716   2.587 -23.958  0.00  0.00    +0.023 A 
ATOM     17  C   UNL     1       3.968   2.235 -23.930  0.00  0.00    +0.002 A 
ATOM     18  C   UNL     1       4.525   1.902 -22.804  0.00  0.00    +0.000 A 
ATOM     19  C   UNL     1       3.830   1.921 -21.706  0.00  0.00    +0.002 A 
ATOM     20  C   UNL     1       2.578   2.272 -21.733  0.00  0.00    +0.023 A 
ENDBRANCH   2  15
TORSDOF 2
ENDMDL
MODEL 2
REMARK VINA RESULT:    -8.646      0.570      1.240
REMARK INTER + INTRA:          -9.466
REMARK INTER:                 -10.020
REMARK INTRA:                   0.554
REMARK UNBOUND:                 0.191
REMARK  Name = ZINC000000338381
REMARK  3 active torsions:
REMARK  status: ('A' for Active; 'I' for Inactive)
REMARK    1  A    between atoms: C_1  and  N_2
REMARK    2  A    between atoms: N_2  and  C_14
REMARK    3  A    between atoms: C_3  and  C_5
REMARK                            x       y       z     vdW  Elec       q    Type
REMARK                         _______ _______ _______ _____ _____    ______ ____
ROOT
ATOM      1  C   UNL     1       0.421   4.154 -23.121  0.00  0.00    +0.138 C 
ATOM      2  N   UNL     1       0.736   2.913 -22.890  0.00  0.00    -0.269 N 
ATOM      3  C   UNL     1      -0.199   2.033 -22.689  0.00  0.00    +0.267 C 
ATOM      4  O   UNL     1       0.115   0.792 -22.459  0.00  0.00    -0.268 OA
ENDROOT
BRANCH   3   5
ATOM      5  C   UNL     1      -1.448   2.391 -22.717  0.00  0.00    +0.103 A 
ATOM      6  C   UNL     1      -2.076   2.895 -23.739  0.00  0.00    +0.040 A 
ATOM      7  C   UNL     1      -3.305   3.124 -23.382  0.00  0.00    +0.000 A 
ATOM      8  C   UNL     1      -4.321   3.615 -24.026  0.00  0.00    +0.010 A 
ATOM      9  C   UNL     1      -5.468   3.745 -23.430  0.00  0.00    +0.001 A 
ATOM     10  C   UNL     1      -5.600   3.384 -22.188  0.00  0.00    +0.002 A 
ATOM     11  C   UNL     1      -4.584   2.893 -21.544  0.00  0.00    +0.026 A 
ATOM     12  C   UNL     1      -3.436   2.763 -22.140  0.00  0.00    +0.047 A 
ATOM     13  N   UNL     1      -2.289   2.310 -21.730  0.00  0.00    -0.351 N 
ATOM     14  H   UNL     1      -2.091   1.966 -20.828  0.00  0.00    +0.166 HD
ENDBRANCH   3   5
BRANCH   2  15
ATOM     15  C   UNL     1       1.985   2.554 -22.862  0.00  0.00    +0.036 A 
ATOM     16  C   UNL     1       2.658   2.456 -23.970  0.00  0.00    +0.023 A 
ATOM     17  C   UNL     1       3.907   2.097 -23.942  0.00  0.00    +0.002 A 
ATOM     18  C   UNL     1       4.483   1.836 -22.806  0.00  0.00    +0.000 A 
ATOM     19  C   UNL     1       3.809   1.935 -21.698  0.00  0.00    +0.002 A 
ATOM     20  C   UNL     1       2.560   2.294 -21.727  0.00  0.00    +0.023 A 
ENDBRANCH   2  15
TORSDOF 2
ENDMDL
MODEL 3
REMARK VINA RESULT:    -8.555      1.103      6.579
REMARK INTER + INTRA:          -9.364
REMARK INTER:                  -9.651
REMARK INTRA:                   0.287
REMARK UNBOUND:                 0.191
REMARK  Name = ZINC000000338381
REMARK  3 active torsions:
REMARK  status: ('A' for Active; 'I' for Inactive)
REMARK    1  A    between atoms: C_1  and  N_2
REMARK    2  A    between atoms: N_2  and  C_14
REMARK    3  A    between atoms: C_3  and  C_5
REMARK                            x       y       z     vdW  Elec       q    Type
REMARK                         _______ _______ _______ _____ _____    ______ ____
ROOT
ATOM      1  C   UNL     1      -1.048   4.819 -22.525  0.00  0.00    +0.138 C 
ATOM      2  N   UNL     1      -1.636   3.747 -22.965  0.00  0.00    -0.269 N 
ATOM      3  C   UNL     1      -0.943   2.669 -23.183  0.00  0.00    +0.267 C 
ATOM      4  O   UNL     1      -1.531   1.595 -23.623  0.00  0.00    -0.268 OA
ENDROOT
BRANCH   3   5
ATOM      5  C   UNL     1       0.338   2.663 -22.961  0.00  0.00    +0.103 A 
ATOM      6  C   UNL     1       0.947   2.010 -22.016  0.00  0.00    +0.040 A 
ATOM      7  C   UNL     1       2.221   2.253 -22.116  0.00  0.00    +0.000 A 
ATOM      8  C   UNL     1       3.241   1.847 -21.421  0.00  0.00    +0.010 A 
ATOM      9  C   UNL     1       4.439   2.243 -21.732  0.00  0.00    +0.001 A 
ATOM     10  C   UNL     1       4.617   3.046 -22.739  0.00  0.00    +0.002 A 
ATOM     11  C   UNL     1       3.596   3.452 -23.434  0.00  0.00    +0.026 A 
ATOM     12  C   UNL     1       2.398   3.056 -23.123  0.00  0.00    +0.047 A 
ATOM     13  N   UNL     1       1.234   3.309 -23.645  0.00  0.00    -0.351 N 
ATOM     14  H   UNL     1       1.063   3.889 -24.422  0.00  0.00    +0.166 HD
ENDBRANCH   3   5
BRANCH   2  15
ATOM     15  C   UNL     1      -2.917   3.752 -23.187  0.00  0.00    +0.036 A 
ATOM     16  C   UNL     1      -3.741   3.397 -22.247  0.00  0.00    +0.023 A 
ATOM     17  C   UNL     1      -5.022   3.402 -22.469  0.00  0.00    +0.002 A 
ATOM     18  C   UNL     1      -5.479   3.762 -23.631  0.00  0.00    +0.000 A 
ATOM     19  C   UNL     1      -4.654   4.117 -24.572  0.00  0.00    +0.002 A 
ATOM     20  C   UNL     1      -3.373   4.112 -24.349  0.00  0.00    +0.023 A 
ENDBRANCH   2  15
TORSDOF 2
ENDMDL
MODEL 4
REMARK VINA RESULT:    -8.527      1.082      6.620
REMARK INTER + INTRA:          -9.333
REMARK INTER:                  -9.644
REMARK INTRA:                   0.310
REMARK UNBOUND:                 0.191
REMARK  Name = ZINC000000338381
REMARK  3 active torsions:
REMARK  status: ('A' for Active; 'I' for Inactive)
REMARK    1  A    between atoms: C_1  and  N_2
REMARK    2  A    between atoms: N_2  and  C_14
REMARK    3  A    between atoms: C_3  and  C_5
REMARK                            x       y       z     vdW  Elec       q    Type
REMARK                         _______ _______ _______ _____ _____    ______ ____
ROOT
ATOM      1  C   UNL     1      -0.939   4.836 -22.596  0.00  0.00    +0.138 C 
ATOM      2  N   UNL     1      -1.536   3.759 -23.013  0.00  0.00    -0.269 N 
ATOM      3  C   UNL     1      -0.847   2.680 -23.235  0.00  0.00    +0.267 C 
ATOM      4  O   UNL     1      -1.443   1.601 -23.652  0.00  0.00    -0.268 OA
ENDROOT
BRANCH   3   5
ATOM      5  C   UNL     1       0.438   2.677 -23.042  0.00  0.00    +0.103 A 
ATOM      6  C   UNL     1       1.326   3.260 -23.793  0.00  0.00    +0.040 A 
ATOM      7  C   UNL     1       2.499   3.034 -23.278  0.00  0.00    +0.000 A 
ATOM      8  C   UNL     1       3.693   3.392 -23.644  0.00  0.00    +0.010 A 
ATOM      9  C   UNL     1       4.725   3.029 -22.943  0.00  0.00    +0.001 A 
ATOM     10  C   UNL     1       4.562   2.307 -21.874  0.00  0.00    +0.002 A 
ATOM     11  C   UNL     1       3.367   1.949 -21.508  0.00  0.00    +0.026 A 
ATOM     12  C   UNL     1       2.335   2.312 -22.210  0.00  0.00    +0.047 A 
ATOM     13  N   UNL     1       1.063   2.092 -22.064  0.00  0.00    -0.351 N 
ATOM     14  H   UNL     1       0.644   1.572 -21.339  0.00  0.00    +0.166 HD
ENDBRANCH   3   5
BRANCH   2  15
ATOM     15  C   UNL     1      -2.822   3.761 -23.206  0.00  0.00    +0.036 A 
ATOM     16  C   UNL     1      -3.305   4.129 -24.356  0.00  0.00    +0.023 A 
ATOM     17  C   UNL     1      -4.591   4.131 -24.549  0.00  0.00    +0.002 A 
ATOM     18  C   UNL     1      -5.393   3.765 -23.594  0.00  0.00    +0.000 A 
ATOM     19  C   UNL     1      -4.909   3.398 -22.445  0.00  0.00    +0.002 A 
ATOM     20  C   UNL     1      -3.623   3.395 -22.251  0.00  0.00    +0.023 A 
ENDBRANCH   2  15
TORSDOF 2
ENDMDL
MODEL 5
REMARK VINA RESULT:    -8.500      2.124      2.534
REMARK INTER + INTRA:          -9.303
REMARK INTER:                  -9.811
REMARK INTRA:                   0.508
REMARK UNBOUND:                 0.191
REMARK  Name = ZINC000000338381
REMARK  3 active torsions:
REMARK  status: ('A' for Active; 'I' for Inactive)
REMARK    1  A    between atoms: C_1  and  N_2
REMARK    2  A    between atoms: N_2  and  C_14
REMARK    3  A    between atoms: C_3  and  C_5
REMARK                            x       y       z     vdW  Elec       q    Type
REMARK                         _______ _______ _______ _____ _____    ______ ____
ROOT
ATOM      1  C   UNL     1       0.357   2.565 -22.929  0.00  0.00    +0.138 C 
ATOM      2  N   UNL     1       1.072   3.156 -23.840  0.00  0.00    -0.269 N 
ATOM      3  C   UNL     1       0.491   3.726 -24.853  0.00  0.00    +0.267 C 
ATOM      4  O   UNL     1       1.206   4.318 -25.765  0.00  0.00    -0.268 OA
ENDROOT
BRANCH   3   5
ATOM      5  C   UNL     1      -0.804   3.706 -24.956  0.00  0.00    +0.103 A 
ATOM      6  C   UNL     1      -1.647   4.221 -24.110  0.00  0.00    +0.040 A 
ATOM      7  C   UNL     1      -2.849   4.000 -24.555  0.00  0.00    +0.000 A 
ATOM      8  C   UNL     1      -4.020   4.307 -24.084  0.00  0.00    +0.010 A 
ATOM      9  C   UNL     1      -5.093   3.965 -24.734  0.00  0.00    +0.001 A 
ATOM     10  C   UNL     1      -4.993   3.314 -25.855  0.00  0.00    +0.002 A 
ATOM     11  C   UNL     1      -3.821   3.007 -26.325  0.00  0.00    +0.026 A 
ATOM     12  C   UNL     1      -2.748   3.350 -25.676  0.00  0.00    +0.047 A 
ATOM     13  N   UNL     1      -1.486   3.168 -25.924  0.00  0.00    -0.351 N 
ATOM     14  H   UNL     1      -1.110   2.704 -26.707  0.00  0.00    +0.166 HD
ENDBRANCH   3   5
BRANCH   2  15
ATOM     15  C   UNL     1       2.368   3.176 -23.737  0.00  0.00    +0.036 A 
ATOM     16  C   UNL     1       2.964   4.224 -23.252  0.00  0.00    +0.023 A 
ATOM     17  C   UNL     1       4.261   4.245 -23.149  0.00  0.00    +0.002 A 
ATOM     18  C   UNL     1       4.959   3.217 -23.531  0.00  0.00    +0.000 A 
ATOM     19  C   UNL     1       4.362   2.170 -24.016  0.00  0.00    +0.002 A 
ATOM     20  C   UNL     1       3.066   2.149 -24.119  0.00  0.00    +0.023 A 
ENDBRANCH   2  15
TORSDOF 2
ENDMDL
MODEL 6
REMARK VINA RESULT:    -6.969      2.221      6.916
REMARK INTER + INTRA:          -7.593
REMARK INTER:                  -8.978
REMARK INTRA:                   1.385
REMARK UNBOUND:                 0.191
REMARK  Name = ZINC000000338381
REMARK  3 active torsions:
REMARK  status: ('A' for Active; 'I' for Inactive)
REMARK    1  A    between atoms: C_1  and  N_2
REMARK    2  A    between atoms: N_2  and  C_14
REMARK    3  A    between atoms: C_3  and  C_5
REMARK                            x       y       z     vdW  Elec       q    Type
REMARK                         _______ _______ _______ _____ _____    ______ ____
ROOT
ATOM      1  C   UNL     1      -0.277   2.662 -24.680  0.00  0.00    +0.138 C 
ATOM      2  N   UNL     1      -0.971   3.665 -24.229  0.00  0.00    -0.269 N 
ATOM      3  C   UNL     1      -0.378   4.634 -23.599  0.00  0.00    +0.267 C 
ATOM      4  O   UNL     1      -1.072   5.638 -23.148  0.00  0.00    -0.268 OA
ENDROOT
BRANCH   3   5
ATOM      5  C   UNL     1       0.909   4.602 -23.419  0.00  0.00    +0.103 A 
ATOM      6  C   UNL     1       1.649   3.533 -23.385  0.00  0.00    +0.040 A 
ATOM      7  C   UNL     1       2.880   3.904 -23.186  0.00  0.00    +0.000 A 
ATOM      8  C   UNL     1       3.984   3.228 -23.074  0.00  0.00    +0.010 A 
ATOM      9  C   UNL     1       5.109   3.848 -22.873  0.00  0.00    +0.001 A 
ATOM     10  C   UNL     1       5.129   5.145 -22.784  0.00  0.00    +0.002 A 
ATOM     11  C   UNL     1       4.024   5.820 -22.896  0.00  0.00    +0.026 A 
ATOM     12  C   UNL     1       2.899   5.200 -23.097  0.00  0.00    +0.047 A 
ATOM     13  N   UNL     1       1.682   5.632 -23.240  0.00  0.00    -0.351 N 
ATOM     14  H   UNL     1       1.395   6.573 -23.218  0.00  0.00    +0.166 HD
ENDBRANCH   3   5
BRANCH   2  15
ATOM     15  C   UNL     1      -2.259   3.698 -24.409  0.00  0.00    +0.036 A 
ATOM     16  C   UNL     1      -3.059   3.639 -23.387  0.00  0.00    +0.023 A 
ATOM     17  C   UNL     1      -4.346   3.671 -23.567  0.00  0.00    +0.002 A 
ATOM     18  C   UNL     1      -4.833   3.764 -24.769  0.00  0.00    +0.000 A 
ATOM     19  C   UNL     1      -4.031   3.823 -25.791  0.00  0.00    +0.002 A 
ATOM     20  C   UNL     1      -2.744   3.790 -25.611  0.00  0.00    +0.023 A 
ENDBRANCH   2  15
TORSDOF 2
ENDMDL
MODEL 7
REMARK VINA RESULT:    -6.305      2.763      4.469
REMARK INTER + INTRA:          -6.852
REMARK INTER:                  -7.429
REMARK INTRA:                   0.578
REMARK UNBOUND:                 0.191
REMARK  Name = ZINC000000338381
REMARK  3 active torsions:
REMARK  status: ('A' for Active; 'I' for Inactive)
REMARK    1  A    between atoms: C_1  and  N_2
REMARK    2  A    between atoms: N_2  and  C_14
REMARK    3  A    between atoms: C_3  and  C_5
REMARK                            x       y       z     vdW  Elec       q    Type
REMARK                         _______ _______ _______ _____ _____    ______ ____
ROOT
ATOM      1  C   UNL     1       3.819   4.861 -23.067  0.00  0.00    +0.138 C 
ATOM      2  N   UNL     1       4.633   3.866 -22.871  0.00  0.00    -0.269 N 
ATOM      3  C   UNL     1       4.161   2.683 -22.609  0.00  0.00    +0.267 C 
ATOM      4  O   UNL     1       4.974   1.687 -22.414  0.00  0.00    -0.268 OA
ENDROOT
BRANCH   3   5
ATOM      5  C   UNL     1       2.877   2.495 -22.543  0.00  0.00    +0.103 A 
ATOM      6  C   UNL     1       2.239   1.909 -21.573  0.00  0.00    +0.040 A 
ATOM      7  C   UNL     1       0.972   1.912 -21.865  0.00  0.00    +0.000 A 
ATOM      8  C   UNL     1      -0.068   1.455 -21.234  0.00  0.00    +0.010 A 
ATOM      9  C   UNL     1      -1.253   1.587 -21.751  0.00  0.00    +0.001 A 
ATOM     10  C   UNL     1      -1.398   2.175 -22.901  0.00  0.00    +0.002 A 
ATOM     11  C   UNL     1      -0.358   2.632 -23.533  0.00  0.00    +0.026 A 
ATOM     12  C   UNL     1       0.827   2.500 -23.016  0.00  0.00    +0.047 A 
ATOM     13  N   UNL     1       2.004   2.861 -23.434  0.00  0.00    -0.351 N 
ATOM     14  H   UNL     1       2.200   3.329 -24.278  0.00  0.00    +0.166 HD
ENDBRANCH   3   5
BRANCH   2  15
ATOM     15  C   UNL     1       5.918   4.054 -22.938  0.00  0.00    +0.036 A 
ATOM     16  C   UNL     1       6.556   4.541 -21.916  0.00  0.00    +0.023 A 
ATOM     17  C   UNL     1       7.842   4.729 -21.983  0.00  0.00    +0.002 A 
ATOM     18  C   UNL     1       8.487   4.429 -23.071  0.00  0.00    +0.000 A 
ATOM     19  C   UNL     1       7.847   3.942 -24.092  0.00  0.00    +0.002 A 
ATOM     20  C   UNL     1       6.562   3.754 -24.025  0.00  0.00    +0.023 A 
ENDBRANCH   2  15
TORSDOF 2
ENDMDL
MODEL 8
REMARK VINA RESULT:    -6.004      2.339      7.576
REMARK INTER + INTRA:          -6.515
REMARK INTER:                  -7.489
REMARK INTRA:                   0.974
REMARK UNBOUND:                 0.191
REMARK  Name = ZINC000000338381
REMARK  3 active torsions:
REMARK  status: ('A' for Active; 'I' for Inactive)
REMARK    1  A    between atoms: C_1  and  N_2
REMARK    2  A    between atoms: N_2  and  C_14
REMARK    3  A    between atoms: C_3  and  C_5
REMARK                            x       y       z     vdW  Elec       q    Type
REMARK                         _______ _______ _______ _____ _____    ______ ____
ROOT
ATOM      1  C   UNL     1       2.117   5.129 -23.560  0.00  0.00    +0.138 C 
ATOM      2  N   UNL     1       1.679   3.962 -23.190  0.00  0.00    -0.269 N 
ATOM      3  C   UNL     1       2.520   3.034 -22.842  0.00  0.00    +0.267 C 
ATOM      4  O   UNL     1       2.083   1.866 -22.472  0.00  0.00    -0.268 OA
ENDROOT
BRANCH   3   5
ATOM      5  C   UNL     1       3.797   3.271 -22.864  0.00  0.00    +0.103 A 
ATOM      6  C   UNL     1       4.598   3.056 -23.865  0.00  0.00    +0.040 A 
ATOM      7  C   UNL     1       5.795   3.418 -23.508  0.00  0.00    +0.000 A 
ATOM      8  C   UNL     1       6.932   3.404 -24.137  0.00  0.00    +0.010 A 
ATOM      9  C   UNL     1       8.008   3.830 -23.545  0.00  0.00    +0.001 A 
ATOM     10  C   UNL     1       7.947   4.269 -22.322  0.00  0.00    +0.002 A 
ATOM     11  C   UNL     1       6.809   4.282 -21.694  0.00  0.00    +0.026 A 
ATOM     12  C   UNL     1       5.733   3.857 -22.286  0.00  0.00    +0.047 A 
ATOM     13  N   UNL     1       4.499   3.766 -21.888  0.00  0.00    -0.351 N 
ATOM     14  H   UNL     1       4.155   4.027 -21.003  0.00  0.00    +0.166 HD
ENDBRANCH   3   5
BRANCH   2  15
ATOM     15  C   UNL     1       0.401   3.724 -23.168  0.00  0.00    +0.036 A 
ATOM     16  C   UNL     1      -0.046   2.549 -23.500  0.00  0.00    +0.023 A 
ATOM     17  C   UNL     1      -1.324   2.311 -23.478  0.00  0.00    +0.002 A 
ATOM     18  C   UNL     1      -2.154   3.247 -23.125  0.00  0.00    +0.000 A 
ATOM     19  C   UNL     1      -1.706   4.422 -22.794  0.00  0.00    +0.002 A 
ATOM     20  C   UNL     1      -0.428   4.660 -22.815  0.00  0.00    +0.023 A 
ENDBRANCH   2  15
TORSDOF 2
ENDMDL
