MODEL 1
REMARK VINA RESULT:    -9.554      0.000      0.000
REMARK INTER + INTRA:         -11.699
REMARK INTER:                 -10.965
REMARK INTRA:                  -0.733
REMARK UNBOUND:                -0.468
REMARK  Name = ZINC000000338217
REMARK  6 active torsions:
REMARK  status: ('A' for Active; 'I' for Inactive)
REMARK    1  A    between atoms: C_1  and  O_2
REMARK    2  A    between atoms: O_2  and  C_3
REMARK    3  A    between atoms: C_5  and  O_6
REMARK    4  A    between atoms: O_6  and  C_7
REMARK    5  A    between atoms: C_12  and  C_13
REMARK    6  A    between atoms: C_21  and  C_22
REMARK                            x       y       z     vdW  Elec       q    Type
REMARK                         _______ _______ _______ _____ _____    ______ ____
ROOT
ATOM      1  C   UNL     1       2.185   1.784 -21.521  0.00  0.00    +0.130 A 
ATOM      2  C   UNL     1       2.985   2.576 -22.172  0.00  0.00    +0.092 A 
ATOM      3  C   UNL     1       2.499   3.463 -22.988  0.00  0.00    +0.138 A 
ATOM      4  C   UNL     1       1.213   3.558 -23.154  0.00  0.00    +0.106 A 
ATOM      5  C   UNL     1       0.726   4.446 -23.970  0.00  0.00    +0.197 A 
ATOM      6  C   UNL     1      -0.559   4.541 -24.135  0.00  0.00    +0.098 A 
ATOM      7  C   UNL     1      -1.359   3.750 -23.484  0.00  0.00    +0.139 A 
ATOM      8  O   UNL     1      -0.873   2.863 -22.668  0.00  0.00    -0.454 OA
ATOM      9  O   UNL     1       1.527   5.237 -24.621  0.00  0.00    -0.287 OA
ATOM     10  C   UNL     1       0.413   2.767 -22.502  0.00  0.00    +0.149 A 
ATOM     11  C   UNL     1       0.899   1.880 -21.686  0.00  0.00    +0.034 A 
ATOM     12  C   UNL     1       0.100   1.088 -21.035  0.00  0.00    +0.051 C 
ENDROOT
BRANCH   7  13
ATOM     13  C   UNL     1      -2.645   3.845 -23.649  0.00  0.00    +0.017 A 
ATOM     14  C   UNL     1      -3.123   4.406 -24.721  0.00  0.00    +0.011 A 
ATOM     15  C   UNL     1      -4.408   4.502 -24.886  0.00  0.00    +0.001 A 
ATOM     16  C   UNL     1      -5.216   4.037 -23.980  0.00  0.00    +0.000 A 
ATOM     17  C   UNL     1      -4.739   3.476 -22.909  0.00  0.00    +0.001 A 
ATOM     18  C   UNL     1      -3.453   3.380 -22.743  0.00  0.00    +0.011 A 
ENDBRANCH   7  13
BRANCH   1  20
ATOM     19  C   UNL     1       3.835   0.367 -20.939  0.00  0.00    +0.277 C 
ATOM     20  O   UNL     1       2.672   0.897 -20.705  0.00  0.00    -0.495 OA
ENDBRANCH   1  20
BRANCH   3  21
ATOM     21  O   UNL     1       3.298   4.254 -23.640  0.00  0.00    -0.494 OA
ATOM     22  C   UNL     1       4.522   4.418 -23.235  0.00  0.00    +0.277 C 
ENDBRANCH   3  21
TORSDOF 3
ENDMDL
MODEL 2
REMARK VINA RESULT:    -9.524      0.957      3.184
REMARK INTER + INTRA:         -11.663
REMARK INTER:                 -10.932
REMARK INTRA:                  -0.730
REMARK UNBOUND:                -0.468
REMARK  Name = ZINC000000338217
REMARK  6 active torsions:
REMARK  status: ('A' for Active; 'I' for Inactive)
REMARK    1  A    between atoms: C_1  and  O_2
REMARK    2  A    between atoms: O_2  and  C_3
REMARK    3  A    between atoms: C_5  and  O_6
REMARK    4  A    between atoms: O_6  and  C_7
REMARK    5  A    between atoms: C_12  and  C_13
REMARK    6  A    between atoms: C_21  and  C_22
REMARK                            x       y       z     vdW  Elec       q    Type
REMARK                         _______ _______ _______ _____ _____    ______ ____
ROOT
ATOM      1  C   UNL     1       2.673   3.566 -23.219  0.00  0.00    +0.130 A 
ATOM      2  C   UNL     1       2.916   2.663 -22.317  0.00  0.00    +0.092 A 
ATOM      3  C   UNL     1       1.932   2.051 -21.728  0.00  0.00    +0.138 A 
ATOM      4  C   UNL     1       0.705   2.342 -22.042  0.00  0.00    +0.106 A 
ATOM      5  C   UNL     1      -0.279   1.730 -21.453  0.00  0.00    +0.197 A 
ATOM      6  C   UNL     1      -1.507   2.022 -21.766  0.00  0.00    +0.098 A 
ATOM      7  C   UNL     1      -1.750   2.925 -22.668  0.00  0.00    +0.139 A 
ATOM      8  O   UNL     1      -0.766   3.537 -23.257  0.00  0.00    -0.454 OA
ATOM      9  O   UNL     1      -0.035   0.826 -20.551  0.00  0.00    -0.287 OA
ATOM     10  C   UNL     1       0.462   3.246 -22.944  0.00  0.00    +0.149 A 
ATOM     11  C   UNL     1       1.446   3.858 -23.533  0.00  0.00    +0.034 A 
ATOM     12  C   UNL     1       1.203   4.762 -24.435  0.00  0.00    +0.051 C 
ENDROOT
BRANCH   7  13
ATOM     13  C   UNL     1      -2.977   3.217 -22.982  0.00  0.00    +0.017 A 
ATOM     14  C   UNL     1      -3.919   3.107 -22.092  0.00  0.00    +0.011 A 
ATOM     15  C   UNL     1      -5.146   3.399 -22.405  0.00  0.00    +0.001 A 
ATOM     16  C   UNL     1      -5.432   3.800 -23.608  0.00  0.00    +0.000 A 
ATOM     17  C   UNL     1      -4.491   3.910 -24.498  0.00  0.00    +0.001 A 
ATOM     18  C   UNL     1      -3.263   3.619 -24.184  0.00  0.00    +0.011 A 
ENDBRANCH   7  13
BRANCH   1  20
ATOM     19  C   UNL     1       4.800   4.305 -23.201  0.00  0.00    +0.277 C 
ATOM     20  O   UNL     1       3.658   4.178 -23.808  0.00  0.00    -0.495 OA
ENDBRANCH   1  20
BRANCH   3  21
ATOM     21  O   UNL     1       2.176   1.147 -20.826  0.00  0.00    -0.494 OA
ATOM     22  C   UNL     1       3.360   0.619 -20.738  0.00  0.00    +0.277 C 
ENDBRANCH   3  21
TORSDOF 3
ENDMDL
MODEL 3
REMARK VINA RESULT:    -8.785      1.511      3.535
REMARK INTER + INTRA:         -10.794
REMARK INTER:                 -10.130
REMARK INTRA:                  -0.664
REMARK UNBOUND:                -0.468
REMARK  Name = ZINC000000338217
REMARK  6 active torsions:
REMARK  status: ('A' for Active; 'I' for Inactive)
REMARK    1  A    between atoms: C_1  and  O_2
REMARK    2  A    between atoms: O_2  and  C_3
REMARK    3  A    between atoms: C_5  and  O_6
REMARK    4  A    between atoms: O_6  and  C_7
REMARK    5  A    between atoms: C_12  and  C_13
REMARK    6  A    between atoms: C_21  and  C_22
REMARK                            x       y       z     vdW  Elec       q    Type
REMARK                         _______ _______ _______ _____ _____    ______ ____
ROOT
ATOM      1  C   UNL     1       4.064   4.148 -23.034  0.00  0.00    +0.130 A 
ATOM      2  C   UNL     1       4.553   2.958 -22.851  0.00  0.00    +0.092 A 
ATOM      3  C   UNL     1       3.757   1.953 -22.634  0.00  0.00    +0.138 A 
ATOM      4  C   UNL     1       2.471   2.139 -22.602  0.00  0.00    +0.106 A 
ATOM      5  C   UNL     1       1.674   1.135 -22.385  0.00  0.00    +0.197 A 
ATOM      6  C   UNL     1       0.388   1.321 -22.353  0.00  0.00    +0.098 A 
ATOM      7  C   UNL     1      -0.102   2.511 -22.536  0.00  0.00    +0.139 A 
ATOM      8  O   UNL     1       0.695   3.515 -22.752  0.00  0.00    -0.454 OA
ATOM      9  O   UNL     1       2.164  -0.055 -22.202  0.00  0.00    -0.287 OA
ATOM     10  C   UNL     1       1.982   3.330 -22.785  0.00  0.00    +0.149 A 
ATOM     11  C   UNL     1       2.778   4.334 -23.001  0.00  0.00    +0.034 A 
ATOM     12  C   UNL     1       2.288   5.524 -23.185  0.00  0.00    +0.051 C 
ENDROOT
BRANCH   7  13
ATOM     13  C   UNL     1      -1.387   2.697 -22.503  0.00  0.00    +0.017 A 
ATOM     14  C   UNL     1      -2.049   2.477 -21.405  0.00  0.00    +0.011 A 
ATOM     15  C   UNL     1      -3.335   2.663 -21.372  0.00  0.00    +0.001 A 
ATOM     16  C   UNL     1      -3.960   3.069 -22.437  0.00  0.00    +0.000 A 
ATOM     17  C   UNL     1      -3.300   3.289 -23.535  0.00  0.00    +0.001 A 
ATOM     18  C   UNL     1      -2.013   3.103 -23.568  0.00  0.00    +0.011 A 
ENDBRANCH   7  13
BRANCH   1  20
ATOM     19  C   UNL     1       6.096   5.100 -22.848  0.00  0.00    +0.277 C 
ATOM     20  O   UNL     1       4.861   5.152 -23.250  0.00  0.00    -0.495 OA
ENDBRANCH   1  20
BRANCH   3  21
ATOM     21  O   UNL     1       4.246   0.763 -22.451  0.00  0.00    -0.494 OA
ATOM     22  C   UNL     1       5.388   0.616 -21.848  0.00  0.00    +0.277 C 
ENDBRANCH   3  21
TORSDOF 3
ENDMDL
MODEL 4
REMARK VINA RESULT:    -8.307      1.774      6.696
REMARK INTER + INTRA:         -10.232
REMARK INTER:                  -9.576
REMARK INTRA:                  -0.656
REMARK UNBOUND:                -0.468
REMARK  Name = ZINC000000338217
REMARK  6 active torsions:
REMARK  status: ('A' for Active; 'I' for Inactive)
REMARK    1  A    between atoms: C_1  and  O_2
REMARK    2  A    between atoms: O_2  and  C_3
REMARK    3  A    between atoms: C_5  and  O_6
REMARK    4  A    between atoms: O_6  and  C_7
REMARK    5  A    between atoms: C_12  and  C_13
REMARK    6  A    between atoms: C_21  and  C_22
REMARK                            x       y       z     vdW  Elec       q    Type
REMARK                         _______ _______ _______ _____ _____    ______ ____
ROOT
ATOM      1  C   UNL     1      -1.255   3.258 -24.794  0.00  0.00    +0.130 A 
ATOM      2  C   UNL     1      -1.895   2.692 -23.813  0.00  0.00    +0.092 A 
ATOM      3  C   UNL     1      -1.240   2.235 -22.787  0.00  0.00    +0.138 A 
ATOM      4  C   UNL     1       0.054   2.345 -22.742  0.00  0.00    +0.106 A 
ATOM      5  C   UNL     1       0.710   1.888 -21.715  0.00  0.00    +0.197 A 
ATOM      6  C   UNL     1       2.004   1.998 -21.670  0.00  0.00    +0.098 A 
ATOM      7  C   UNL     1       2.643   2.563 -22.650  0.00  0.00    +0.139 A 
ATOM      8  O   UNL     1       1.989   3.020 -23.676  0.00  0.00    -0.454 OA
ATOM      9  O   UNL     1       0.069   1.322 -20.736  0.00  0.00    -0.287 OA
ATOM     10  C   UNL     1       0.694   2.911 -23.722  0.00  0.00    +0.149 A 
ATOM     11  C   UNL     1       0.039   3.367 -24.748  0.00  0.00    +0.034 A 
ATOM     12  C   UNL     1       0.678   3.933 -25.728  0.00  0.00    +0.051 C 
ENDROOT
BRANCH   7  13
ATOM     13  C   UNL     1       3.938   2.673 -22.604  0.00  0.00    +0.017 A 
ATOM     14  C   UNL     1       4.580   3.218 -23.595  0.00  0.00    +0.011 A 
ATOM     15  C   UNL     1       5.874   3.328 -23.549  0.00  0.00    +0.001 A 
ATOM     16  C   UNL     1       6.527   2.892 -22.513  0.00  0.00    +0.000 A 
ATOM     17  C   UNL     1       5.886   2.347 -21.523  0.00  0.00    +0.001 A 
ATOM     18  C   UNL     1       4.591   2.237 -21.568  0.00  0.00    +0.011 A 
ENDBRANCH   7  13
BRANCH   1  20
ATOM     19  C   UNL     1      -3.140   3.343 -26.023  0.00  0.00    +0.277 C 
ATOM     20  O   UNL     1      -1.911   3.714 -25.819  0.00  0.00    -0.495 OA
ENDBRANCH   1  20
BRANCH   3  21
ATOM     21  O   UNL     1      -1.880   1.669 -21.807  0.00  0.00    -0.494 OA
ATOM     22  C   UNL     1      -2.994   2.181 -21.377  0.00  0.00    +0.277 C 
ENDBRANCH   3  21
TORSDOF 3
ENDMDL
MODEL 5
REMARK VINA RESULT:    -8.199      2.046      6.723
REMARK INTER + INTRA:         -10.106
REMARK INTER:                  -9.584
REMARK INTRA:                  -0.522
REMARK UNBOUND:                -0.468
REMARK  Name = ZINC000000338217
REMARK  6 active torsions:
REMARK  status: ('A' for Active; 'I' for Inactive)
REMARK    1  A    between atoms: C_1  and  O_2
REMARK    2  A    between atoms: O_2  and  C_3
REMARK    3  A    between atoms: C_5  and  O_6
REMARK    4  A    between atoms: O_6  and  C_7
REMARK    5  A    between atoms: C_12  and  C_13
REMARK    6  A    between atoms: C_21  and  C_22
REMARK                            x       y       z     vdW  Elec       q    Type
REMARK                         _______ _______ _______ _____ _____    ______ ____
ROOT
ATOM      1  C   UNL     1      -3.024   3.764 -25.027  0.00  0.00    +0.130 A 
ATOM      2  C   UNL     1      -3.889   3.703 -24.059  0.00  0.00    +0.092 A 
ATOM      3  C   UNL     1      -3.530   3.254 -22.893  0.00  0.00    +0.138 A 
ATOM      4  C   UNL     1      -2.305   2.866 -22.696  0.00  0.00    +0.106 A 
ATOM      5  C   UNL     1      -1.945   2.417 -21.529  0.00  0.00    +0.197 A 
ATOM      6  C   UNL     1      -0.720   2.029 -21.332  0.00  0.00    +0.098 A 
ATOM      7  C   UNL     1       0.145   2.091 -22.300  0.00  0.00    +0.139 A 
ATOM      8  O   UNL     1      -0.214   2.540 -23.466  0.00  0.00    -0.454 OA
ATOM      9  O   UNL     1      -2.811   2.356 -20.562  0.00  0.00    -0.287 OA
ATOM     10  C   UNL     1      -1.440   2.928 -23.664  0.00  0.00    +0.149 A 
ATOM     11  C   UNL     1      -1.799   3.377 -24.830  0.00  0.00    +0.034 A 
ATOM     12  C   UNL     1      -0.934   3.438 -25.798  0.00  0.00    +0.051 C 
ENDROOT
BRANCH   7  13
ATOM     13  C   UNL     1       1.370   1.703 -22.103  0.00  0.00    +0.017 A 
ATOM     14  C   UNL     1       1.800   1.498 -20.893  0.00  0.00    +0.011 A 
ATOM     15  C   UNL     1       3.025   1.110 -20.695  0.00  0.00    +0.001 A 
ATOM     16  C   UNL     1       3.820   0.928 -21.707  0.00  0.00    +0.000 A 
ATOM     17  C   UNL     1       3.391   1.133 -22.917  0.00  0.00    +0.001 A 
ATOM     18  C   UNL     1       2.165   1.521 -23.115  0.00  0.00    +0.011 A 
ENDBRANCH   7  13
BRANCH   1  20
ATOM     19  C   UNL     1      -4.015   3.437 -27.022  0.00  0.00    +0.277 C 
ATOM     20  O   UNL     1      -3.384   4.213 -26.193  0.00  0.00    -0.495 OA
ENDBRANCH   1  20
BRANCH   3  21
ATOM     21  O   UNL     1      -4.395   3.192 -21.925  0.00  0.00    -0.494 OA
ATOM     22  C   UNL     1      -5.666   3.285 -22.182  0.00  0.00    +0.277 C 
ENDBRANCH   3  21
TORSDOF 3
ENDMDL
MODEL 6
REMARK VINA RESULT:    -7.221      2.591      4.707
REMARK INTER + INTRA:          -8.956
REMARK INTER:                  -8.291
REMARK INTRA:                  -0.665
REMARK UNBOUND:                -0.468
REMARK  Name = ZINC000000338217
REMARK  6 active torsions:
REMARK  status: ('A' for Active; 'I' for Inactive)
REMARK    1  A    between atoms: C_1  and  O_2
REMARK    2  A    between atoms: O_2  and  C_3
REMARK    3  A    between atoms: C_5  and  O_6
REMARK    4  A    between atoms: O_6  and  C_7
REMARK    5  A    between atoms: C_12  and  C_13
REMARK    6  A    between atoms: C_21  and  C_22
REMARK                            x       y       z     vdW  Elec       q    Type
REMARK                         _______ _______ _______ _____ _____    ______ ____
ROOT
ATOM      1  C   UNL     1       5.794   6.391 -22.134  0.00  0.00    +0.130 A 
ATOM      2  C   UNL     1       6.499   5.329 -22.391  0.00  0.00    +0.092 A 
ATOM      3  C   UNL     1       5.927   4.275 -22.893  0.00  0.00    +0.138 A 
ATOM      4  C   UNL     1       4.651   4.283 -23.138  0.00  0.00    +0.106 A 
ATOM      5  C   UNL     1       4.079   3.229 -23.641  0.00  0.00    +0.197 A 
ATOM      6  C   UNL     1       2.802   3.237 -23.886  0.00  0.00    +0.098 A 
ATOM      7  C   UNL     1       2.098   4.299 -23.629  0.00  0.00    +0.139 A 
ATOM      8  O   UNL     1       2.669   5.353 -23.127  0.00  0.00    -0.454 OA
ATOM      9  O   UNL     1       4.784   2.168 -23.898  0.00  0.00    -0.287 OA
ATOM     10  C   UNL     1       3.946   5.345 -22.881  0.00  0.00    +0.149 A 
ATOM     11  C   UNL     1       4.518   6.399 -22.379  0.00  0.00    +0.034 A 
ATOM     12  C   UNL     1       3.813   7.461 -22.122  0.00  0.00    +0.051 C 
ENDROOT
BRANCH   7  13
ATOM     13  C   UNL     1       0.822   4.307 -23.875  0.00  0.00    +0.017 A 
ATOM     14  C   UNL     1       0.361   3.725 -24.943  0.00  0.00    +0.011 A 
ATOM     15  C   UNL     1      -0.915   3.734 -25.188  0.00  0.00    +0.001 A 
ATOM     16  C   UNL     1      -1.732   4.323 -24.366  0.00  0.00    +0.000 A 
ATOM     17  C   UNL     1      -1.272   4.904 -23.298  0.00  0.00    +0.001 A 
ATOM     18  C   UNL     1       0.005   4.896 -23.052  0.00  0.00    +0.011 A 
ENDBRANCH   7  13
BRANCH   1  20
ATOM     19  C   UNL     1       7.335   7.312 -20.774  0.00  0.00    +0.277 C 
ATOM     20  O   UNL     1       6.367   7.444 -21.631  0.00  0.00    -0.495 OA
ENDBRANCH   1  20
BRANCH   3  21
ATOM     21  O   UNL     1       6.632   3.213 -23.150  0.00  0.00    -0.494 OA
ATOM     22  C   UNL     1       7.847   3.332 -23.596  0.00  0.00    +0.277 C 
ENDBRANCH   3  21
TORSDOF 3
ENDMDL
