MODEL 1
REMARK VINA RESULT:    -8.238      0.000      0.000
REMARK INTER + INTRA:          -9.187
REMARK INTER:                  -9.656
REMARK INTRA:                   0.469
REMARK UNBOUND:                 0.496
REMARK  Name = ZINC000000035525
REMARK  6 active torsions:
REMARK  status: ('A' for Active; 'I' for Inactive)
REMARK    1  A    between atoms: C_1  and  O_2
REMARK    2  A    between atoms: O_2  and  C_3
REMARK    3  A    between atoms: C_7  and  O_8
REMARK    4  A    between atoms: O_8  and  C_9
REMARK    5  A    between atoms: C_17  and  O_18
REMARK    6  A    between atoms: O_18  and  C_19
REMARK                            x       y       z     vdW  Elec       q    Type
REMARK                         _______ _______ _______ _____ _____    ______ ____
ROOT
ATOM      1  C   UNL     1       1.009   1.906 -22.663  0.00  0.00    +0.164 A 
ATOM      2  C   UNL     1       0.447   1.691 -21.511  0.00  0.00    +0.050 A 
ATOM      3  C   UNL     1      -0.809   1.974 -21.338  0.00  0.00    +0.017 A 
ATOM      4  C   UNL     1      -1.504   2.472 -22.317  0.00  0.00    +0.047 A 
ATOM      5  C   UNL     1      -2.761   2.755 -22.144  0.00  0.00    +0.142 A 
ATOM      6  C   UNL     1      -3.456   3.254 -23.123  0.00  0.00    +0.082 A 
ATOM      7  C   UNL     1      -4.702   3.616 -23.210  0.00  0.00    +0.055 A 
ATOM      8  C   UNL     1      -4.909   4.056 -24.415  0.00  0.00    +0.198 A 
ATOM      9  O   UNL     1      -3.791   3.965 -25.074  0.00  0.00    -0.445 OA
ATOM     10  C   UNL     1      -2.894   3.469 -24.275  0.00  0.00    +0.231 A 
ATOM     11  N   UNL     1      -1.637   3.186 -24.448  0.00  0.00    -0.208 NA
ATOM     12  C   UNL     1      -0.942   2.688 -23.469  0.00  0.00    +0.123 A 
ATOM     13  C   UNL     1       0.315   2.405 -23.642  0.00  0.00    +0.188 A 
ENDROOT
BRANCH   1  15
ATOM     14  C   UNL     1       2.718   0.447 -22.519  0.00  0.00    +0.277 C 
ATOM     15  O   UNL     1       2.267   1.623 -22.836  0.00  0.00    -0.491 OA
ENDBRANCH   1  15
BRANCH   5  16
ATOM     16  O   UNL     1      -3.324   2.540 -20.992  0.00  0.00    -0.494 OA
ATOM     17  C   UNL     1      -3.342   3.478 -20.092  0.00  0.00    +0.277 C 
ENDBRANCH   5  16
BRANCH  13  18
ATOM     18  O   UNL     1       0.877   2.620 -24.794  0.00  0.00    -0.489 OA
ATOM     19  C   UNL     1       1.474   3.751 -25.025  0.00  0.00    +0.277 C 
ENDBRANCH  13  18
TORSDOF 3
ENDMDL
MODEL 2
REMARK VINA RESULT:    -7.942      1.267      5.676
REMARK INTER + INTRA:          -8.839
REMARK INTER:                  -9.319
REMARK INTRA:                   0.480
REMARK UNBOUND:                 0.496
REMARK  Name = ZINC000000035525
REMARK  6 active torsions:
REMARK  status: ('A' for Active; 'I' for Inactive)
REMARK    1  A    between atoms: C_1  and  O_2
REMARK    2  A    between atoms: O_2  and  C_3
REMARK    3  A    between atoms: C_7  and  O_8
REMARK    4  A    between atoms: O_8  and  C_9
REMARK    5  A    between atoms: C_17  and  O_18
REMARK    6  A    between atoms: O_18  and  C_19
REMARK                            x       y       z     vdW  Elec       q    Type
REMARK                         _______ _______ _______ _____ _____    ______ ____
ROOT
ATOM      1  C   UNL     1      -3.327   3.065 -23.140  0.00  0.00    +0.164 A 
ATOM      2  C   UNL     1      -2.757   3.156 -24.304  0.00  0.00    +0.050 A 
ATOM      3  C   UNL     1      -1.496   2.870 -24.435  0.00  0.00    +0.017 A 
ATOM      4  C   UNL     1      -0.805   2.491 -23.401  0.00  0.00    +0.047 A 
ATOM      5  C   UNL     1       0.456   2.205 -23.531  0.00  0.00    +0.142 A 
ATOM      6  C   UNL     1       1.147   1.826 -22.497  0.00  0.00    +0.082 A 
ATOM      7  C   UNL     1       2.396   1.489 -22.361  0.00  0.00    +0.055 A 
ATOM      8  C   UNL     1       2.597   1.190 -21.113  0.00  0.00    +0.198 A 
ATOM      9  O   UNL     1       1.473   1.342 -20.476  0.00  0.00    -0.445 OA
ATOM     10  C   UNL     1       0.577   1.735 -21.333  0.00  0.00    +0.231 A 
ATOM     11  N   UNL     1      -0.684   2.022 -21.202  0.00  0.00    -0.208 NA
ATOM     12  C   UNL     1      -1.375   2.400 -22.236  0.00  0.00    +0.123 A 
ATOM     13  C   UNL     1      -2.636   2.687 -22.106  0.00  0.00    +0.188 A 
ENDROOT
BRANCH   1  15
ATOM     14  C   UNL     1      -5.233   3.914 -23.988  0.00  0.00    +0.277 C 
ATOM     15  O   UNL     1      -4.589   3.352 -23.009  0.00  0.00    -0.491 OA
ENDBRANCH   1  15
BRANCH   5  16
ATOM     16  O   UNL     1       1.026   2.296 -24.696  0.00  0.00    -0.494 OA
ATOM     17  C   UNL     1       1.593   3.409 -25.057  0.00  0.00    +0.277 C 
ENDBRANCH   5  16
BRANCH  13  18
ATOM     18  O   UNL     1      -3.206   2.595 -20.941  0.00  0.00    -0.489 OA
ATOM     19  C   UNL     1      -3.205   3.615 -20.135  0.00  0.00    +0.277 C 
ENDBRANCH  13  18
TORSDOF 3
ENDMDL
MODEL 3
REMARK VINA RESULT:    -7.899      1.403      3.124
REMARK INTER + INTRA:          -8.789
REMARK INTER:                  -9.248
REMARK INTRA:                   0.459
REMARK UNBOUND:                 0.496
REMARK  Name = ZINC000000035525
REMARK  6 active torsions:
REMARK  status: ('A' for Active; 'I' for Inactive)
REMARK    1  A    between atoms: C_1  and  O_2
REMARK    2  A    between atoms: O_2  and  C_3
REMARK    3  A    between atoms: C_7  and  O_8
REMARK    4  A    between atoms: O_8  and  C_9
REMARK    5  A    between atoms: C_17  and  O_18
REMARK    6  A    between atoms: O_18  and  C_19
REMARK                            x       y       z     vdW  Elec       q    Type
REMARK                         _______ _______ _______ _____ _____    ______ ____
ROOT
ATOM      1  C   UNL     1       0.691   3.071 -24.077  0.00  0.00    +0.164 A 
ATOM      2  C   UNL     1       0.205   3.489 -25.208  0.00  0.00    +0.050 A 
ATOM      3  C   UNL     1      -1.072   3.701 -25.328  0.00  0.00    +0.017 A 
ATOM      4  C   UNL     1      -1.862   3.496 -24.316  0.00  0.00    +0.047 A 
ATOM      5  C   UNL     1      -3.139   3.709 -24.435  0.00  0.00    +0.142 A 
ATOM      6  C   UNL     1      -3.929   3.504 -23.424  0.00  0.00    +0.082 A 
ATOM      7  C   UNL     1      -5.215   3.637 -23.284  0.00  0.00    +0.055 A 
ATOM      8  C   UNL     1      -5.523   3.302 -22.066  0.00  0.00    +0.198 A 
ATOM      9  O   UNL     1      -4.428   2.961 -21.454  0.00  0.00    -0.445 OA
ATOM     10  C   UNL     1      -3.443   3.086 -22.293  0.00  0.00    +0.231 A 
ATOM     11  N   UNL     1      -2.167   2.873 -22.174  0.00  0.00    -0.208 NA
ATOM     12  C   UNL     1      -1.375   3.079 -23.185  0.00  0.00    +0.123 A 
ATOM     13  C   UNL     1      -0.099   2.866 -23.066  0.00  0.00    +0.188 A 
ENDROOT
BRANCH   1  15
ATOM     14  C   UNL     1       2.552   1.966 -24.702  0.00  0.00    +0.277 C 
ATOM     15  O   UNL     1       1.969   2.858 -23.958  0.00  0.00    -0.491 OA
ENDBRANCH   1  15
BRANCH   5  16
ATOM     16  O   UNL     1      -3.626   4.127 -25.566  0.00  0.00    -0.494 OA
ATOM     17  C   UNL     1      -4.028   3.270 -26.457  0.00  0.00    +0.277 C 
ENDBRANCH   5  16
BRANCH  13  18
ATOM     18  O   UNL     1       0.387   2.448 -21.935  0.00  0.00    -0.489 OA
ATOM     19  C   UNL     1       0.449   1.174 -21.685  0.00  0.00    +0.277 C 
ENDBRANCH  13  18
TORSDOF 3
ENDMDL
MODEL 4
REMARK VINA RESULT:    -7.657      1.421      4.922
REMARK INTER + INTRA:          -8.504
REMARK INTER:                  -9.017
REMARK INTRA:                   0.513
REMARK UNBOUND:                 0.496
REMARK  Name = ZINC000000035525
REMARK  6 active torsions:
REMARK  status: ('A' for Active; 'I' for Inactive)
REMARK    1  A    between atoms: C_1  and  O_2
REMARK    2  A    between atoms: O_2  and  C_3
REMARK    3  A    between atoms: C_7  and  O_8
REMARK    4  A    between atoms: O_8  and  C_9
REMARK    5  A    between atoms: C_17  and  O_18
REMARK    6  A    between atoms: O_18  and  C_19
REMARK                            x       y       z     vdW  Elec       q    Type
REMARK                         _______ _______ _______ _____ _____    ______ ____
ROOT
ATOM      1  C   UNL     1      -4.428   3.326 -22.451  0.00  0.00    +0.164 A 
ATOM      2  C   UNL     1      -3.779   2.808 -21.451  0.00  0.00    +0.050 A 
ATOM      3  C   UNL     1      -2.488   2.668 -21.516  0.00  0.00    +0.017 A 
ATOM      4  C   UNL     1      -1.847   3.046 -22.581  0.00  0.00    +0.047 A 
ATOM      5  C   UNL     1      -0.555   2.907 -22.647  0.00  0.00    +0.142 A 
ATOM      6  C   UNL     1       0.086   3.286 -23.712  0.00  0.00    +0.082 A 
ATOM      7  C   UNL     1       1.348   3.256 -24.024  0.00  0.00    +0.055 A 
ATOM      8  C   UNL     1       1.479   3.757 -25.216  0.00  0.00    +0.198 A 
ATOM      9  O   UNL     1       0.297   4.095 -25.642  0.00  0.00    -0.445 OA
ATOM     10  C   UNL     1      -0.563   3.804 -24.712  0.00  0.00    +0.231 A 
ATOM     11  N   UNL     1      -1.854   3.944 -24.647  0.00  0.00    -0.208 NA
ATOM     12  C   UNL     1      -2.496   3.565 -23.581  0.00  0.00    +0.123 A 
ATOM     13  C   UNL     1      -3.786   3.705 -23.516  0.00  0.00    +0.188 A 
ENDROOT
BRANCH   1  15
ATOM     14  C   UNL     1      -6.430   2.622 -21.699  0.00  0.00    +0.277 C 
ATOM     15  O   UNL     1      -5.719   3.466 -22.385  0.00  0.00    -0.491 OA
ENDBRANCH   1  15
BRANCH   5  16
ATOM     16  O   UNL     1       0.094   2.389 -21.647  0.00  0.00    -0.494 OA
ATOM     17  C   UNL     1       0.644   1.217 -21.767  0.00  0.00    +0.277 C 
ENDBRANCH   5  16
BRANCH  13  18
ATOM     18  O   UNL     1      -4.435   4.223 -24.516  0.00  0.00    -0.489 OA
ATOM     19  C   UNL     1      -4.849   3.463 -25.486  0.00  0.00    +0.277 C 
ENDBRANCH  13  18
TORSDOF 3
ENDMDL
MODEL 5
REMARK VINA RESULT:    -7.354      2.270      6.349
REMARK INTER + INTRA:          -8.148
REMARK INTER:                  -8.636
REMARK INTRA:                   0.487
REMARK UNBOUND:                 0.496
REMARK  Name = ZINC000000035525
REMARK  6 active torsions:
REMARK  status: ('A' for Active; 'I' for Inactive)
REMARK    1  A    between atoms: C_1  and  O_2
REMARK    2  A    between atoms: O_2  and  C_3
REMARK    3  A    between atoms: C_7  and  O_8
REMARK    4  A    between atoms: O_8  and  C_9
REMARK    5  A    between atoms: C_17  and  O_18
REMARK    6  A    between atoms: O_18  and  C_19
REMARK                            x       y       z     vdW  Elec       q    Type
REMARK                         _______ _______ _______ _____ _____    ______ ____
ROOT
ATOM      1  C   UNL     1      -0.201   3.254 -24.151  0.00  0.00    +0.164 A 
ATOM      2  C   UNL     1       0.733   4.006 -24.652  0.00  0.00    +0.050 A 
ATOM      3  C   UNL     1       1.973   3.815 -24.312  0.00  0.00    +0.017 A 
ATOM      4  C   UNL     1       2.279   2.873 -23.471  0.00  0.00    +0.047 A 
ATOM      5  C   UNL     1       3.519   2.681 -23.131  0.00  0.00    +0.142 A 
ATOM      6  C   UNL     1       3.824   1.738 -22.290  0.00  0.00    +0.082 A 
ATOM      7  C   UNL     1       4.962   1.348 -21.797  0.00  0.00    +0.055 A 
ATOM      8  C   UNL     1       4.731   0.355 -20.991  0.00  0.00    +0.198 A 
ATOM      9  O   UNL     1       3.450   0.131 -20.986  0.00  0.00    -0.445 OA
ATOM     10  C   UNL     1       2.890   0.986 -21.789  0.00  0.00    +0.231 A 
ATOM     11  N   UNL     1       1.650   1.177 -22.129  0.00  0.00    -0.208 NA
ATOM     12  C   UNL     1       1.344   2.121 -22.970  0.00  0.00    +0.123 A 
ATOM     13  C   UNL     1       0.104   2.311 -23.310  0.00  0.00    +0.188 A 
ENDROOT
BRANCH   1  15
ATOM     14  C   UNL     1      -2.066   4.516 -24.099  0.00  0.00    +0.277 C 
ATOM     15  O   UNL     1      -1.442   3.446 -24.491  0.00  0.00    -0.491 OA
ENDBRANCH   1  15
BRANCH   5  16
ATOM     16  O   UNL     1       4.454   3.433 -23.632  0.00  0.00    -0.494 OA
ATOM     17  C   UNL     1       4.911   4.441 -22.952  0.00  0.00    +0.277 C 
ENDBRANCH   5  16
BRANCH  13  18
ATOM     18  O   UNL     1      -0.830   1.559 -22.809  0.00  0.00    -0.489 OA
ATOM     19  C   UNL     1      -1.379   1.875 -21.674  0.00  0.00    +0.277 C 
ENDBRANCH  13  18
TORSDOF 3
ENDMDL
MODEL 6
REMARK VINA RESULT:    -7.008      1.923      5.281
REMARK INTER + INTRA:          -7.742
REMARK INTER:                  -8.298
REMARK INTRA:                   0.556
REMARK UNBOUND:                 0.496
REMARK  Name = ZINC000000035525
REMARK  6 active torsions:
REMARK  status: ('A' for Active; 'I' for Inactive)
REMARK    1  A    between atoms: C_1  and  O_2
REMARK    2  A    between atoms: O_2  and  C_3
REMARK    3  A    between atoms: C_7  and  O_8
REMARK    4  A    between atoms: O_8  and  C_9
REMARK    5  A    between atoms: C_17  and  O_18
REMARK    6  A    between atoms: O_18  and  C_19
REMARK                            x       y       z     vdW  Elec       q    Type
REMARK                         _______ _______ _______ _____ _____    ______ ____
ROOT
ATOM      1  C   UNL     1      -1.930   2.459 -22.166  0.00  0.00    +0.164 A 
ATOM      2  C   UNL     1      -1.399   1.366 -21.703  0.00  0.00    +0.050 A 
ATOM      3  C   UNL     1      -0.109   1.208 -21.733  0.00  0.00    +0.017 A 
ATOM      4  C   UNL     1       0.649   2.142 -22.225  0.00  0.00    +0.047 A 
ATOM      5  C   UNL     1       1.939   1.984 -22.255  0.00  0.00    +0.142 A 
ATOM      6  C   UNL     1       2.697   2.918 -22.748  0.00  0.00    +0.082 A 
ATOM      7  C   UNL     1       3.987   3.006 -22.891  0.00  0.00    +0.055 A 
ATOM      8  C   UNL     1       4.252   4.152 -23.443  0.00  0.00    +0.198 A 
ATOM      9  O   UNL     1       3.126   4.774 -23.640  0.00  0.00    -0.445 OA
ATOM     10  C   UNL     1       2.166   4.010 -23.210  0.00  0.00    +0.231 A 
ATOM     11  N   UNL     1       0.876   4.168 -23.181  0.00  0.00    -0.208 NA
ATOM     12  C   UNL     1       0.117   3.234 -22.688  0.00  0.00    +0.123 A 
ATOM     13  C   UNL     1      -1.172   3.393 -22.659  0.00  0.00    +0.188 A 
ENDROOT
BRANCH   1  15
ATOM     14  C   UNL     1      -3.833   2.753 -20.999  0.00  0.00    +0.277 C 
ATOM     15  O   UNL     1      -3.221   2.617 -22.136  0.00  0.00    -0.491 OA
ENDBRANCH   1  15
BRANCH   5  16
ATOM     16  O   UNL     1       2.471   0.891 -21.793  0.00  0.00    -0.494 OA
ATOM     17  C   UNL     1       3.211   0.930 -20.725  0.00  0.00    +0.277 C 
ENDBRANCH   5  16
BRANCH  13  18
ATOM     18  O   UNL     1      -1.704   4.485 -23.121  0.00  0.00    -0.489 OA
ATOM     19  C   UNL     1      -2.259   4.491 -24.296  0.00  0.00    +0.277 C 
ENDBRANCH  13  18
TORSDOF 3
ENDMDL
MODEL 7
REMARK VINA RESULT:    -6.939      1.697      3.301
REMARK INTER + INTRA:          -7.660
REMARK INTER:                  -8.290
REMARK INTRA:                   0.629
REMARK UNBOUND:                 0.496
REMARK  Name = ZINC000000035525
REMARK  6 active torsions:
REMARK  status: ('A' for Active; 'I' for Inactive)
REMARK    1  A    between atoms: C_1  and  O_2
REMARK    2  A    between atoms: O_2  and  C_3
REMARK    3  A    between atoms: C_7  and  O_8
REMARK    4  A    between atoms: O_8  and  C_9
REMARK    5  A    between atoms: C_17  and  O_18
REMARK    6  A    between atoms: O_18  and  C_19
REMARK                            x       y       z     vdW  Elec       q    Type
REMARK                         _______ _______ _______ _____ _____    ______ ____
ROOT
ATOM      1  C   UNL     1       2.438   3.526 -23.502  0.00  0.00    +0.164 A 
ATOM      2  C   UNL     1       1.835   4.449 -24.190  0.00  0.00    +0.050 A 
ATOM      3  C   UNL     1       0.546   4.591 -24.098  0.00  0.00    +0.017 A 
ATOM      4  C   UNL     1      -0.140   3.810 -23.318  0.00  0.00    +0.047 A 
ATOM      5  C   UNL     1      -1.429   3.952 -23.226  0.00  0.00    +0.142 A 
ATOM      6  C   UNL     1      -2.115   3.171 -22.445  0.00  0.00    +0.082 A 
ATOM      7  C   UNL     1      -3.386   3.105 -22.179  0.00  0.00    +0.055 A 
ATOM      8  C   UNL     1      -3.568   2.142 -21.326  0.00  0.00    +0.198 A 
ATOM      9  O   UNL     1      -2.409   1.611 -21.064  0.00  0.00    -0.445 OA
ATOM     10  C   UNL     1      -1.512   2.248 -21.756  0.00  0.00    +0.231 A 
ATOM     11  N   UNL     1      -0.223   2.106 -21.848  0.00  0.00    -0.208 NA
ATOM     12  C   UNL     1       0.463   2.887 -22.629  0.00  0.00    +0.123 A 
ATOM     13  C   UNL     1       1.752   2.745 -22.721  0.00  0.00    +0.188 A 
ENDROOT
BRANCH   1  15
ATOM     14  C   UNL     1       4.518   4.300 -23.122  0.00  0.00    +0.277 C 
ATOM     15  O   UNL     1       3.727   3.384 -23.594  0.00  0.00    -0.491 OA
ENDBRANCH   1  15
BRANCH   5  16
ATOM     16  O   UNL     1      -2.032   4.875 -23.914  0.00  0.00    -0.494 OA
ATOM     17  C   UNL     1      -2.963   4.550 -24.761  0.00  0.00    +0.277 C 
ENDBRANCH   5  16
BRANCH  13  18
ATOM     18  O   UNL     1       2.355   1.822 -22.032  0.00  0.00    -0.489 OA
ATOM     19  C   UNL     1       2.609   0.668 -22.574  0.00  0.00    +0.277 C 
ENDBRANCH  13  18
TORSDOF 3
ENDMDL
MODEL 8
REMARK VINA RESULT:    -6.909      2.932      5.150
REMARK INTER + INTRA:          -7.625
REMARK INTER:                  -8.121
REMARK INTRA:                   0.496
REMARK UNBOUND:                 0.496
REMARK  Name = ZINC000000035525
REMARK  6 active torsions:
REMARK  status: ('A' for Active; 'I' for Inactive)
REMARK    1  A    between atoms: C_1  and  O_2
REMARK    2  A    between atoms: O_2  and  C_3
REMARK    3  A    between atoms: C_7  and  O_8
REMARK    4  A    between atoms: O_8  and  C_9
REMARK    5  A    between atoms: C_17  and  O_18
REMARK    6  A    between atoms: O_18  and  C_19
REMARK                            x       y       z     vdW  Elec       q    Type
REMARK                         _______ _______ _______ _____ _____    ______ ____
ROOT
ATOM      1  C   UNL     1       5.200   3.036 -22.309  0.00  0.00    +0.164 A 
ATOM      2  C   UNL     1       4.783   3.825 -23.254  0.00  0.00    +0.050 A 
ATOM      3  C   UNL     1       3.517   3.884 -23.541  0.00  0.00    +0.017 A 
ATOM      4  C   UNL     1       2.667   3.153 -22.882  0.00  0.00    +0.047 A 
ATOM      5  C   UNL     1       1.400   3.212 -23.168  0.00  0.00    +0.142 A 
ATOM      6  C   UNL     1       0.550   2.482 -22.509  0.00  0.00    +0.082 A 
ATOM      7  C   UNL     1      -0.741   2.357 -22.597  0.00  0.00    +0.055 A 
ATOM      8  C   UNL     1      -1.122   1.491 -21.706  0.00  0.00    +0.198 A 
ATOM      9  O   UNL     1      -0.067   1.080 -21.067  0.00  0.00    -0.445 OA
ATOM     10  C   UNL     1       0.967   1.693 -21.564  0.00  0.00    +0.231 A 
ATOM     11  N   UNL     1       2.233   1.634 -21.277  0.00  0.00    -0.208 NA
ATOM     12  C   UNL     1       3.084   2.364 -21.936  0.00  0.00    +0.123 A 
ATOM     13  C   UNL     1       4.350   2.306 -21.650  0.00  0.00    +0.188 A 
ENDROOT
BRANCH   1  15
ATOM     14  C   UNL     1       7.079   4.026 -21.561  0.00  0.00    +0.277 C 
ATOM     15  O   UNL     1       6.467   2.977 -22.023  0.00  0.00    -0.491 OA
ENDBRANCH   1  15
BRANCH   5  16
ATOM     16  O   UNL     1       0.983   4.001 -24.113  0.00  0.00    -0.494 OA
ATOM     17  C   UNL     1       0.779   3.533 -25.308  0.00  0.00    +0.277 C 
ENDBRANCH   5  16
BRANCH  13  18
ATOM     18  O   UNL     1       4.767   1.516 -20.705  0.00  0.00    -0.489 OA
ATOM     19  C   UNL     1       4.976   0.258 -20.954  0.00  0.00    +0.277 C 
ENDBRANCH  13  18
TORSDOF 3
ENDMDL
MODEL 9
REMARK VINA RESULT:    -6.355      2.936      6.434
REMARK INTER + INTRA:          -6.974
REMARK INTER:                  -7.469
REMARK INTRA:                   0.496
REMARK UNBOUND:                 0.496
REMARK  Name = ZINC000000035525
REMARK  6 active torsions:
REMARK  status: ('A' for Active; 'I' for Inactive)
REMARK    1  A    between atoms: C_1  and  O_2
REMARK    2  A    between atoms: O_2  and  C_3
REMARK    3  A    between atoms: C_7  and  O_8
REMARK    4  A    between atoms: O_8  and  C_9
REMARK    5  A    between atoms: C_17  and  O_18
REMARK    6  A    between atoms: O_18  and  C_19
REMARK                            x       y       z     vdW  Elec       q    Type
REMARK                         _______ _______ _______ _____ _____    ______ ____
ROOT
ATOM      1  C   UNL     1       0.359   2.261 -22.537  0.00  0.00    +0.164 A 
ATOM      2  C   UNL     1       0.855   1.128 -22.134  0.00  0.00    +0.050 A 
ATOM      3  C   UNL     1       2.144   0.969 -22.071  0.00  0.00    +0.017 A 
ATOM      4  C   UNL     1       2.936   1.941 -22.411  0.00  0.00    +0.047 A 
ATOM      5  C   UNL     1       4.225   1.782 -22.348  0.00  0.00    +0.142 A 
ATOM      6  C   UNL     1       5.018   2.755 -22.688  0.00  0.00    +0.082 A 
ATOM      7  C   UNL     1       6.314   2.852 -22.716  0.00  0.00    +0.055 A 
ATOM      8  C   UNL     1       6.619   4.043 -23.135  0.00  0.00    +0.198 A 
ATOM      9  O   UNL     1       5.511   4.684 -23.367  0.00  0.00    -0.445 OA
ATOM     10  C   UNL     1       4.522   3.887 -23.091  0.00  0.00    +0.231 A 
ATOM     11  N   UNL     1       3.233   4.047 -23.153  0.00  0.00    -0.208 NA
ATOM     12  C   UNL     1       2.440   3.074 -22.814  0.00  0.00    +0.123 A 
ATOM     13  C   UNL     1       1.152   3.233 -22.876  0.00  0.00    +0.188 A 
ENDROOT
BRANCH   1  15
ATOM     14  C   UNL     1      -1.657   2.265 -21.534  0.00  0.00    +0.277 C 
ATOM     15  O   UNL     1      -0.930   2.420 -22.599  0.00  0.00    -0.491 OA
ENDBRANCH   1  15
BRANCH   5  16
ATOM     16  O   UNL     1       4.721   0.650 -21.946  0.00  0.00    -0.494 OA
ATOM     17  C   UNL     1       4.939   0.449 -20.680  0.00  0.00    +0.277 C 
ENDBRANCH   5  16
BRANCH  13  18
ATOM     18  O   UNL     1       0.656   4.366 -23.279  0.00  0.00    -0.489 OA
ATOM     19  C   UNL     1       0.222   4.488 -24.498  0.00  0.00    +0.277 C 
ENDBRANCH  13  18
TORSDOF 3
ENDMDL
