MODEL 1
REMARK VINA RESULT:    -9.587      0.000      0.000
REMARK INTER + INTRA:          -9.587
REMARK INTER:                  -9.587
REMARK INTRA:                   0.000
REMARK UNBOUND:                 0.000
REMARK  Name = ZINC000000006256
REMARK  0 active torsions:
REMARK  status: ('A' for Active; 'I' for Inactive)
REMARK                            x       y       z     vdW  Elec       q    Type
REMARK                         _______ _______ _______ _____ _____    ______ ____
ROOT
ATOM      1  O   UNL     1      -5.909   3.421 -23.164  0.00  0.00    -0.285 OA
ATOM      2  C   UNL     1      -4.615   3.464 -23.277  0.00  0.00    +0.212 C 
ATOM      3  C   UNL     1      -3.871   3.505 -22.212  0.00  0.00    +0.032 A 
ATOM      4  C   UNL     1      -4.421   3.503 -21.034  0.00  0.00    +0.012 A 
ATOM      5  C   UNL     1      -3.677   3.544 -19.969  0.00  0.00    +0.001 A 
ATOM      6  C   UNL     1      -2.383   3.587 -20.081  0.00  0.00    +0.001 A 
ATOM      7  C   UNL     1      -1.832   3.589 -21.259  0.00  0.00    +0.009 A 
ATOM      8  C   UNL     1      -2.576   3.548 -22.324  0.00  0.00    -0.003 A 
ATOM      9  C   UNL     1      -2.026   3.551 -23.501  0.00  0.00    +0.038 A 
ATOM     10  C   UNL     1      -0.732   3.594 -23.614  0.00  0.00    +0.175 A 
ATOM     11  C   UNL     1      -0.181   3.597 -24.792  0.00  0.00    +0.167 A 
ATOM     12  O   UNL     1       1.109   3.644 -24.632  0.00  0.00    -0.453 OA
ATOM     13  C   UNL     1       1.355   3.670 -23.357  0.00  0.00    +0.466 C 
ATOM     14  C   UNL     1      -0.925   3.556 -25.857  0.00  0.00    +0.058 A 
ATOM     15  C   UNL     1      -2.220   3.512 -25.745  0.00  0.00    -0.010 A 
ATOM     16  C   UNL     1      -2.964   3.472 -26.810  0.00  0.00    +0.028 A 
ATOM     17  C   UNL     1      -4.258   3.428 -26.698  0.00  0.00    +0.112 A 
ATOM     18  N   UNL     1      -4.808   3.426 -25.519  0.00  0.00    -0.251 NA
ATOM     19  O   UNL     1       0.217   3.640 -22.727  0.00  0.00    -0.452 OA
ATOM     20  C   UNL     1      -2.770   3.510 -24.566  0.00  0.00    +0.023 A 
ATOM     21  C   UNL     1      -4.064   3.467 -24.454  0.00  0.00    +0.119 A 
ENDROOT
TORSDOF 0
ENDMDL
MODEL 2
REMARK VINA RESULT:    -9.575      1.651      4.154
REMARK INTER + INTRA:          -9.575
REMARK INTER:                  -9.575
REMARK INTRA:                   0.000
REMARK UNBOUND:                 0.000
REMARK  Name = ZINC000000006256
REMARK  0 active torsions:
REMARK  status: ('A' for Active; 'I' for Inactive)
REMARK                            x       y       z     vdW  Elec       q    Type
REMARK                         _______ _______ _______ _____ _____    ______ ____
ROOT
ATOM      1  O   UNL     1       0.455   2.974 -25.509  0.00  0.00    -0.285 OA
ATOM      2  C   UNL     1      -0.519   2.919 -24.650  0.00  0.00    +0.212 C 
ATOM      3  C   UNL     1      -0.293   2.510 -23.437  0.00  0.00    +0.032 A 
ATOM      4  C   UNL     1       0.908   2.156 -23.083  0.00  0.00    +0.012 A 
ATOM      5  C   UNL     1       1.134   1.747 -21.870  0.00  0.00    +0.001 A 
ATOM      6  C   UNL     1       0.160   1.691 -21.010  0.00  0.00    +0.001 A 
ATOM      7  C   UNL     1      -1.040   2.045 -21.364  0.00  0.00    +0.009 A 
ATOM      8  C   UNL     1      -1.266   2.454 -22.577  0.00  0.00    -0.003 A 
ATOM      9  C   UNL     1      -2.466   2.807 -22.930  0.00  0.00    +0.038 A 
ATOM     10  C   UNL     1      -3.440   2.752 -22.071  0.00  0.00    +0.175 A 
ATOM     11  C   UNL     1      -4.640   3.105 -22.424  0.00  0.00    +0.167 A 
ATOM     12  O   UNL     1      -5.421   2.959 -21.395  0.00  0.00    -0.453 OA
ATOM     13  C   UNL     1      -4.704   2.515 -20.406  0.00  0.00    +0.466 C 
ATOM     14  C   UNL     1      -4.866   3.514 -23.637  0.00  0.00    +0.058 A 
ATOM     15  C   UNL     1      -3.893   3.570 -24.497  0.00  0.00    -0.010 A 
ATOM     16  C   UNL     1      -4.119   3.979 -25.710  0.00  0.00    +0.028 A 
ATOM     17  C   UNL     1      -3.145   4.035 -26.570  0.00  0.00    +0.112 A 
ATOM     18  N   UNL     1      -1.945   3.681 -26.216  0.00  0.00    -0.251 NA
ATOM     19  O   UNL     1      -3.479   2.387 -20.824  0.00  0.00    -0.452 OA
ATOM     20  C   UNL     1      -2.692   3.216 -24.143  0.00  0.00    +0.023 A 
ATOM     21  C   UNL     1      -1.719   3.272 -25.003  0.00  0.00    +0.119 A 
ENDROOT
TORSDOF 0
ENDMDL
MODEL 3
REMARK VINA RESULT:    -9.430      1.226      3.916
REMARK INTER + INTRA:          -9.430
REMARK INTER:                  -9.430
REMARK INTRA:                   0.000
REMARK UNBOUND:                 0.000
REMARK  Name = ZINC000000006256
REMARK  0 active torsions:
REMARK  status: ('A' for Active; 'I' for Inactive)
REMARK                            x       y       z     vdW  Elec       q    Type
REMARK                         _______ _______ _______ _____ _____    ______ ____
ROOT
ATOM      1  O   UNL     1      -5.871   3.812 -23.582  0.00  0.00    -0.285 OA
ATOM      2  C   UNL     1      -4.592   3.586 -23.606  0.00  0.00    +0.212 C 
ATOM      3  C   UNL     1      -3.956   3.567 -24.740  0.00  0.00    +0.032 A 
ATOM      4  C   UNL     1      -4.601   3.775 -25.850  0.00  0.00    +0.012 A 
ATOM      5  C   UNL     1      -3.966   3.756 -26.984  0.00  0.00    +0.001 A 
ATOM      6  C   UNL     1      -2.686   3.529 -27.009  0.00  0.00    +0.001 A 
ATOM      7  C   UNL     1      -2.041   3.322 -25.899  0.00  0.00    +0.009 A 
ATOM      8  C   UNL     1      -2.677   3.340 -24.765  0.00  0.00    -0.003 A 
ATOM      9  C   UNL     1      -2.032   3.133 -23.656  0.00  0.00    +0.038 A 
ATOM     10  C   UNL     1      -0.752   2.906 -23.679  0.00  0.00    +0.175 A 
ATOM     11  C   UNL     1      -0.107   2.699 -22.570  0.00  0.00    +0.167 A 
ATOM     12  O   UNL     1       1.144   2.500 -22.864  0.00  0.00    -0.453 OA
ATOM     13  C   UNL     1       1.272   2.584 -24.155  0.00  0.00    +0.466 C 
ATOM     14  C   UNL     1      -0.742   2.717 -21.436  0.00  0.00    +0.058 A 
ATOM     15  C   UNL     1      -2.022   2.944 -21.411  0.00  0.00    -0.010 A 
ATOM     16  C   UNL     1      -2.657   2.963 -20.277  0.00  0.00    +0.028 A 
ATOM     17  C   UNL     1      -3.937   3.189 -20.252  0.00  0.00    +0.112 A 
ATOM     18  N   UNL     1      -4.582   3.397 -21.363  0.00  0.00    -0.251 NA
ATOM     19  O   UNL     1       0.100   2.836 -24.659  0.00  0.00    -0.452 OA
ATOM     20  C   UNL     1      -2.667   3.152 -22.522  0.00  0.00    +0.023 A 
ATOM     21  C   UNL     1      -3.947   3.378 -22.497  0.00  0.00    +0.119 A 
ENDROOT
TORSDOF 0
ENDMDL
MODEL 4
REMARK VINA RESULT:    -9.156      1.963      4.671
REMARK INTER + INTRA:          -9.156
REMARK INTER:                  -9.156
REMARK INTRA:                   0.000
REMARK UNBOUND:                 0.000
REMARK  Name = ZINC000000006256
REMARK  0 active torsions:
REMARK  status: ('A' for Active; 'I' for Inactive)
REMARK                            x       y       z     vdW  Elec       q    Type
REMARK                         _______ _______ _______ _____ _____    ______ ____
ROOT
ATOM      1  O   UNL     1      -0.309   2.021 -20.728  0.00  0.00    -0.285 OA
ATOM      2  C   UNL     1      -0.901   2.379 -21.828  0.00  0.00    +0.212 C 
ATOM      3  C   UNL     1      -0.214   2.502 -22.925  0.00  0.00    +0.032 A 
ATOM      4  C   UNL     1       1.065   2.267 -22.921  0.00  0.00    +0.012 A 
ATOM      5  C   UNL     1       1.752   2.390 -24.017  0.00  0.00    +0.001 A 
ATOM      6  C   UNL     1       1.161   2.748 -25.119  0.00  0.00    +0.001 A 
ATOM      7  C   UNL     1      -0.118   2.984 -25.123  0.00  0.00    +0.009 A 
ATOM      8  C   UNL     1      -0.805   2.860 -24.026  0.00  0.00    -0.003 A 
ATOM      9  C   UNL     1      -2.083   3.096 -24.030  0.00  0.00    +0.038 A 
ATOM     10  C   UNL     1      -2.675   3.454 -25.131  0.00  0.00    +0.175 A 
ATOM     11  C   UNL     1      -3.953   3.689 -25.135  0.00  0.00    +0.167 A 
ATOM     12  O   UNL     1      -4.295   4.026 -26.344  0.00  0.00    -0.453 OA
ATOM     13  C   UNL     1      -3.229   3.999 -27.086  0.00  0.00    +0.466 C 
ATOM     14  C   UNL     1      -4.640   3.566 -24.039  0.00  0.00    +0.058 A 
ATOM     15  C   UNL     1      -4.049   3.208 -22.938  0.00  0.00    -0.010 A 
ATOM     16  C   UNL     1      -4.736   3.085 -21.841  0.00  0.00    +0.028 A 
ATOM     17  C   UNL     1      -4.145   2.727 -20.740  0.00  0.00    +0.112 A 
ATOM     18  N   UNL     1      -2.866   2.491 -20.736  0.00  0.00    -0.251 NA
ATOM     19  O   UNL     1      -2.226   3.645 -26.336  0.00  0.00    -0.452 OA
ATOM     20  C   UNL     1      -2.770   2.973 -22.934  0.00  0.00    +0.023 A 
ATOM     21  C   UNL     1      -2.179   2.614 -21.833  0.00  0.00    +0.119 A 
ENDROOT
TORSDOF 0
ENDMDL
MODEL 5
REMARK VINA RESULT:    -8.778      1.944      5.269
REMARK INTER + INTRA:          -8.778
REMARK INTER:                  -8.778
REMARK INTRA:                   0.000
REMARK UNBOUND:                 0.000
REMARK  Name = ZINC000000006256
REMARK  0 active torsions:
REMARK  status: ('A' for Active; 'I' for Inactive)
REMARK                            x       y       z     vdW  Elec       q    Type
REMARK                         _______ _______ _______ _____ _____    ______ ____
ROOT
ATOM      1  O   UNL     1       0.321   3.141 -25.880  0.00  0.00    -0.285 OA
ATOM      2  C   UNL     1      -0.646   3.043 -25.017  0.00  0.00    +0.212 C 
ATOM      3  C   UNL     1      -1.862   3.340 -25.367  0.00  0.00    +0.032 A 
ATOM      4  C   UNL     1      -2.111   3.735 -26.581  0.00  0.00    +0.012 A 
ATOM      5  C   UNL     1      -3.327   4.032 -26.931  0.00  0.00    +0.001 A 
ATOM      6  C   UNL     1      -4.295   3.935 -26.068  0.00  0.00    +0.001 A 
ATOM      7  C   UNL     1      -4.046   3.540 -24.855  0.00  0.00    +0.009 A 
ATOM      8  C   UNL     1      -2.830   3.242 -24.504  0.00  0.00    -0.003 A 
ATOM      9  C   UNL     1      -2.581   2.848 -23.291  0.00  0.00    +0.038 A 
ATOM     10  C   UNL     1      -3.548   2.750 -22.428  0.00  0.00    +0.175 A 
ATOM     11  C   UNL     1      -3.300   2.355 -21.215  0.00  0.00    +0.167 A 
ATOM     12  O   UNL     1      -4.422   2.343 -20.559  0.00  0.00    -0.453 OA
ATOM     13  C   UNL     1      -5.364   2.730 -21.366  0.00  0.00    +0.466 C 
ATOM     14  C   UNL     1      -2.084   2.058 -20.865  0.00  0.00    +0.058 A 
ATOM     15  C   UNL     1      -1.116   2.155 -21.727  0.00  0.00    -0.010 A 
ATOM     16  C   UNL     1       0.100   1.858 -21.377  0.00  0.00    +0.028 A 
ATOM     17  C   UNL     1       1.067   1.956 -22.240  0.00  0.00    +0.112 A 
ATOM     18  N   UNL     1       0.818   2.351 -23.454  0.00  0.00    -0.251 NA
ATOM     19  O   UNL     1      -4.824   2.982 -22.522  0.00  0.00    -0.452 OA
ATOM     20  C   UNL     1      -1.365   2.550 -22.941  0.00  0.00    +0.023 A 
ATOM     21  C   UNL     1      -0.398   2.648 -23.804  0.00  0.00    +0.119 A 
ENDROOT
TORSDOF 0
ENDMDL
MODEL 6
REMARK VINA RESULT:    -8.663      2.212      3.301
REMARK INTER + INTRA:          -8.663
REMARK INTER:                  -8.663
REMARK INTRA:                   0.000
REMARK UNBOUND:                 0.000
REMARK  Name = ZINC000000006256
REMARK  0 active torsions:
REMARK  status: ('A' for Active; 'I' for Inactive)
REMARK                            x       y       z     vdW  Elec       q    Type
REMARK                         _______ _______ _______ _____ _____    ______ ____
ROOT
ATOM      1  O   UNL     1      -2.962   4.168 -25.157  0.00  0.00    -0.285 OA
ATOM      2  C   UNL     1      -2.146   3.637 -24.295  0.00  0.00    +0.212 C 
ATOM      3  C   UNL     1      -2.595   3.221 -23.148  0.00  0.00    +0.032 A 
ATOM      4  C   UNL     1      -3.858   3.338 -22.862  0.00  0.00    +0.012 A 
ATOM      5  C   UNL     1      -4.306   2.922 -21.715  0.00  0.00    +0.001 A 
ATOM      6  C   UNL     1      -3.492   2.391 -20.852  0.00  0.00    +0.001 A 
ATOM      7  C   UNL     1      -2.229   2.274 -21.138  0.00  0.00    +0.009 A 
ATOM      8  C   UNL     1      -1.780   2.689 -22.285  0.00  0.00    -0.003 A 
ATOM      9  C   UNL     1      -0.518   2.573 -22.570  0.00  0.00    +0.038 A 
ATOM     10  C   UNL     1       0.297   2.041 -21.708  0.00  0.00    +0.175 A 
ATOM     11  C   UNL     1       1.560   1.924 -21.993  0.00  0.00    +0.167 A 
ATOM     12  O   UNL     1       2.151   1.368 -20.977  0.00  0.00    -0.453 OA
ATOM     13  C   UNL     1       1.254   1.141 -20.065  0.00  0.00    +0.466 C 
ATOM     14  C   UNL     1       2.008   2.340 -23.140  0.00  0.00    +0.058 A 
ATOM     15  C   UNL     1       1.194   2.872 -24.003  0.00  0.00    -0.010 A 
ATOM     16  C   UNL     1       1.642   3.287 -25.150  0.00  0.00    +0.028 A 
ATOM     17  C   UNL     1       0.828   3.819 -26.012  0.00  0.00    +0.112 A 
ATOM     18  N   UNL     1      -0.436   3.935 -25.727  0.00  0.00    -0.251 NA
ATOM     19  O   UNL     1       0.107   1.557 -20.516  0.00  0.00    -0.452 OA
ATOM     20  C   UNL     1      -0.070   2.988 -23.717  0.00  0.00    +0.023 A 
ATOM     21  C   UNL     1      -0.884   3.520 -24.580  0.00  0.00    +0.119 A 
ENDROOT
TORSDOF 0
ENDMDL
MODEL 7
REMARK VINA RESULT:    -8.436      2.083      3.851
REMARK INTER + INTRA:          -8.436
REMARK INTER:                  -8.436
REMARK INTRA:                   0.000
REMARK UNBOUND:                 0.000
REMARK  Name = ZINC000000006256
REMARK  0 active torsions:
REMARK  status: ('A' for Active; 'I' for Inactive)
REMARK                            x       y       z     vdW  Elec       q    Type
REMARK                         _______ _______ _______ _____ _____    ______ ____
ROOT
ATOM      1  O   UNL     1      -0.553   2.254 -20.618  0.00  0.00    -0.285 OA
ATOM      2  C   UNL     1      -1.176   2.534 -21.724  0.00  0.00    +0.212 C 
ATOM      3  C   UNL     1      -2.470   2.652 -21.729  0.00  0.00    +0.032 A 
ATOM      4  C   UNL     1      -3.142   2.491 -20.627  0.00  0.00    +0.012 A 
ATOM      5  C   UNL     1      -4.436   2.610 -20.631  0.00  0.00    +0.001 A 
ATOM      6  C   UNL     1      -5.060   2.889 -21.737  0.00  0.00    +0.001 A 
ATOM      7  C   UNL     1      -4.388   3.051 -22.839  0.00  0.00    +0.009 A 
ATOM      8  C   UNL     1      -3.094   2.932 -22.834  0.00  0.00    -0.003 A 
ATOM      9  C   UNL     1      -2.423   3.094 -23.936  0.00  0.00    +0.038 A 
ATOM     10  C   UNL     1      -3.046   3.374 -25.042  0.00  0.00    +0.175 A 
ATOM     11  C   UNL     1      -2.375   3.535 -26.143  0.00  0.00    +0.167 A 
ATOM     12  O   UNL     1      -3.221   3.804 -27.093  0.00  0.00    -0.453 OA
ATOM     13  C   UNL     1      -4.415   3.809 -26.579  0.00  0.00    +0.466 C 
ATOM     14  C   UNL     1      -1.081   3.417 -26.139  0.00  0.00    +0.058 A 
ATOM     15  C   UNL     1      -0.457   3.137 -25.033  0.00  0.00    -0.010 A 
ATOM     16  C   UNL     1       0.838   3.018 -25.029  0.00  0.00    +0.028 A 
ATOM     17  C   UNL     1       1.461   2.738 -23.923  0.00  0.00    +0.112 A 
ATOM     18  N   UNL     1       0.790   2.577 -22.821  0.00  0.00    -0.251 NA
ATOM     19  O   UNL     1      -4.307   3.543 -25.310  0.00  0.00    -0.452 OA
ATOM     20  C   UNL     1      -1.129   2.975 -23.931  0.00  0.00    +0.023 A 
ATOM     21  C   UNL     1      -0.505   2.695 -22.826  0.00  0.00    +0.119 A 
ENDROOT
TORSDOF 0
ENDMDL
MODEL 8
REMARK VINA RESULT:    -7.316      2.626      4.991
REMARK INTER + INTRA:          -7.316
REMARK INTER:                  -7.316
REMARK INTRA:                   0.000
REMARK UNBOUND:                 0.000
REMARK  Name = ZINC000000006256
REMARK  0 active torsions:
REMARK  status: ('A' for Active; 'I' for Inactive)
REMARK                            x       y       z     vdW  Elec       q    Type
REMARK                         _______ _______ _______ _____ _____    ______ ____
ROOT
ATOM      1  O   UNL     1       3.490   2.494 -24.014  0.00  0.00    -0.285 OA
ATOM      2  C   UNL     1       2.269   2.492 -23.567  0.00  0.00    +0.212 C 
ATOM      3  C   UNL     1       2.016   2.051 -22.371  0.00  0.00    +0.032 A 
ATOM      4  C   UNL     1       2.984   1.612 -21.621  0.00  0.00    +0.012 A 
ATOM      5  C   UNL     1       2.730   1.170 -20.425  0.00  0.00    +0.001 A 
ATOM      6  C   UNL     1       1.510   1.167 -19.978  0.00  0.00    +0.001 A 
ATOM      7  C   UNL     1       0.542   1.606 -20.728  0.00  0.00    +0.009 A 
ATOM      8  C   UNL     1       0.795   2.048 -21.924  0.00  0.00    -0.003 A 
ATOM      9  C   UNL     1      -0.172   2.486 -22.673  0.00  0.00    +0.038 A 
ATOM     10  C   UNL     1      -1.393   2.484 -22.226  0.00  0.00    +0.175 A 
ATOM     11  C   UNL     1      -2.360   2.922 -22.975  0.00  0.00    +0.167 A 
ATOM     12  O   UNL     1      -3.469   2.814 -22.304  0.00  0.00    -0.453 OA
ATOM     13  C   UNL     1      -3.186   2.308 -21.141  0.00  0.00    +0.466 C 
ATOM     14  C   UNL     1      -2.107   3.364 -24.171  0.00  0.00    +0.058 A 
ATOM     15  C   UNL     1      -0.886   3.367 -24.619  0.00  0.00    -0.010 A 
ATOM     16  C   UNL     1      -0.633   3.808 -25.815  0.00  0.00    +0.028 A 
ATOM     17  C   UNL     1       0.588   3.811 -26.262  0.00  0.00    +0.112 A 
ATOM     18  N   UNL     1       1.555   3.372 -25.512  0.00  0.00    -0.251 NA
ATOM     19  O   UNL     1      -1.903   2.104 -21.092  0.00  0.00    -0.452 OA
ATOM     20  C   UNL     1       0.081   2.928 -23.869  0.00  0.00    +0.023 A 
ATOM     21  C   UNL     1       1.302   2.930 -24.316  0.00  0.00    +0.119 A 
ENDROOT
TORSDOF 0
ENDMDL
MODEL 9
REMARK VINA RESULT:    -7.113      3.270      5.967
REMARK INTER + INTRA:          -7.113
REMARK INTER:                  -7.113
REMARK INTRA:                   0.000
REMARK UNBOUND:                 0.000
REMARK  Name = ZINC000000006256
REMARK  0 active torsions:
REMARK  status: ('A' for Active; 'I' for Inactive)
REMARK                            x       y       z     vdW  Elec       q    Type
REMARK                         _______ _______ _______ _____ _____    ______ ____
ROOT
ATOM      1  O   UNL     1       2.656   0.881 -19.999  0.00  0.00    -0.285 OA
ATOM      2  C   UNL     1       2.291   1.488 -21.089  0.00  0.00    +0.212 C 
ATOM      3  C   UNL     1       3.188   1.983 -21.889  0.00  0.00    +0.032 A 
ATOM      4  C   UNL     1       4.451   1.870 -21.599  0.00  0.00    +0.012 A 
ATOM      5  C   UNL     1       5.348   2.365 -22.399  0.00  0.00    +0.001 A 
ATOM      6  C   UNL     1       4.984   2.972 -23.489  0.00  0.00    +0.001 A 
ATOM      7  C   UNL     1       3.721   3.084 -23.779  0.00  0.00    +0.009 A 
ATOM      8  C   UNL     1       2.824   2.590 -22.979  0.00  0.00    -0.003 A 
ATOM      9  C   UNL     1       1.562   2.702 -23.269  0.00  0.00    +0.038 A 
ATOM     10  C   UNL     1       1.197   3.309 -24.359  0.00  0.00    +0.175 A 
ATOM     11  C   UNL     1      -0.065   3.422 -24.650  0.00  0.00    +0.167 A 
ATOM     12  O   UNL     1      -0.163   4.062 -25.777  0.00  0.00    -0.453 OA
ATOM     13  C   UNL     1       1.039   4.344 -26.184  0.00  0.00    +0.466 C 
ATOM     14  C   UNL     1      -0.962   2.927 -23.850  0.00  0.00    +0.058 A 
ATOM     15  C   UNL     1      -0.598   2.320 -22.759  0.00  0.00    -0.010 A 
ATOM     16  C   UNL     1      -1.495   1.825 -21.959  0.00  0.00    +0.028 A 
ATOM     17  C   UNL     1      -1.131   1.218 -20.869  0.00  0.00    +0.112 A 
ATOM     18  N   UNL     1       0.132   1.106 -20.579  0.00  0.00    -0.251 NA
ATOM     19  O   UNL     1       1.880   3.879 -25.307  0.00  0.00    -0.452 OA
ATOM     20  C   UNL     1       0.665   2.208 -22.469  0.00  0.00    +0.023 A 
ATOM     21  C   UNL     1       1.029   1.601 -21.379  0.00  0.00    +0.119 A 
ENDROOT
TORSDOF 0
ENDMDL
