MODEL 1
REMARK VINA RESULT:    -9.103      0.000      0.000
REMARK INTER + INTRA:         -11.898
REMARK INTER:                 -11.349
REMARK INTRA:                  -0.549
REMARK UNBOUND:                -0.134
REMARK  Name = ZINC000000689938
REMARK  5 active torsions:
REMARK  status: ('A' for Active; 'I' for Inactive)
REMARK    1  A    between atoms: C_11  and  O_12
REMARK    2  A    between atoms: O_12  and  C_13
REMARK    3  A    between atoms: C_13  and  C_14
REMARK    4  A    between atoms: N_23  and  C_24
REMARK    5  A    between atoms: C_24  and  C_25
REMARK                            x       y       z     vdW  Elec       q    Type
REMARK                         _______ _______ _______ _____ _____    ______ ____
ROOT
ATOM      1  O   UNL     1       8.453   6.731 -21.787  0.00  0.00    -0.270 OA
ATOM      2  C   UNL     1       7.194   6.512 -22.030  0.00  0.00    +0.248 C 
ATOM      3  C   UNL     1       6.316   7.442 -21.795  0.00  0.00    +0.044 A 
ATOM      4  C   UNL     1       6.696   8.589 -21.316  0.00  0.00    +0.063 A 
ATOM      5  C   UNL     1       5.818   9.518 -21.081  0.00  0.00    +0.167 A 
ATOM      6  C   UNL     1       4.559   9.299 -21.324  0.00  0.00    +0.167 A 
ATOM      7  O   UNL     1       3.897  10.372 -21.008  0.00  0.00    -0.453 OA
ATOM      8  C   UNL     1       4.746  11.254 -20.569  0.00  0.00    +0.466 C 
ATOM      9  C   UNL     1       4.180   8.153 -21.802  0.00  0.00    +0.054 A 
ATOM     10  O   UNL     1       5.933  10.726 -20.614  0.00  0.00    -0.453 OA
ATOM     11  C   UNL     1       5.057   7.223 -22.038  0.00  0.00    -0.027 A 
ATOM     12  C   UNL     1       4.678   6.075 -22.516  0.00  0.00    +0.043 C 
ATOM     13  C   UNL     1       3.419   5.858 -22.758  0.00  0.00    +0.041 C 
ATOM     14  C   UNL     1       3.039   4.710 -23.237  0.00  0.00    +0.119 C 
ATOM     15  C   UNL     1       3.917   3.780 -23.472  0.00  0.00    +0.033 C 
ATOM     16  C   UNL     1       5.176   3.999 -23.229  0.00  0.00    +0.025 C 
ATOM     17  C   UNL     1       5.556   5.146 -22.751  0.00  0.00    +0.084 C 
ATOM     18  N   UNL     1       6.814   5.365 -22.508  0.00  0.00    -0.290 N 
ENDROOT
BRANCH  14  19
ATOM     19  O   UNL     1       1.781   4.491 -23.480  0.00  0.00    -0.372 OA
BRANCH  19  20
ATOM     20  C   UNL     1       1.335   3.272 -23.551  0.00  0.00    +0.195 C 
BRANCH  20  21
ATOM     21  C   UNL     1       0.305   2.914 -22.842  0.00  0.00    -0.022 A 
ATOM     22  C   UNL     1      -0.803   3.590 -22.919  0.00  0.00    +0.006 A 
ATOM     23  C   UNL     1      -1.833   3.232 -22.210  0.00  0.00    +0.000 A 
ATOM     24  C   UNL     1      -1.754   2.198 -21.426  0.00  0.00    +0.000 A 
ATOM     25  C   UNL     1      -0.646   1.523 -21.349  0.00  0.00    +0.000 A 
ATOM     26  C   UNL     1       0.384   1.881 -22.058  0.00  0.00    +0.006 A 
ENDBRANCH  20  21
ENDBRANCH  19  20
ENDBRANCH  14  19
BRANCH  18  27
ATOM     27  C   UNL     1       7.693   4.436 -22.743  0.00  0.00    +0.143 C 
BRANCH  27  28
ATOM     28  C   UNL     1       8.145   4.259 -23.948  0.00  0.00    -0.030 A 
ATOM     29  C   UNL     1       8.530   3.077 -24.330  0.00  0.00    +0.005 A 
ATOM     30  C   UNL     1       8.983   2.899 -25.536  0.00  0.00    +0.000 A 
ATOM     31  C   UNL     1       9.052   3.902 -26.359  0.00  0.00    +0.000 A 
ATOM     32  C   UNL     1       8.667   5.084 -25.977  0.00  0.00    +0.000 A 
ATOM     33  C   UNL     1       8.214   5.262 -24.771  0.00  0.00    +0.005 A 
ENDBRANCH  27  28
ENDBRANCH  18  27
TORSDOF 5
ENDMDL
MODEL 2
REMARK VINA RESULT:    -8.636      2.113      3.262
REMARK INTER + INTRA:         -11.294
REMARK INTER:                 -11.092
REMARK INTRA:                  -0.202
REMARK UNBOUND:                -0.134
REMARK  Name = ZINC000000689938
REMARK  5 active torsions:
REMARK  status: ('A' for Active; 'I' for Inactive)
REMARK    1  A    between atoms: C_11  and  O_12
REMARK    2  A    between atoms: O_12  and  C_13
REMARK    3  A    between atoms: C_13  and  C_14
REMARK    4  A    between atoms: N_23  and  C_24
REMARK    5  A    between atoms: C_24  and  C_25
REMARK                            x       y       z     vdW  Elec       q    Type
REMARK                         _______ _______ _______ _____ _____    ______ ____
ROOT
ATOM      1  O   UNL     1       7.214   4.818 -22.041  0.00  0.00    -0.270 OA
ATOM      2  C   UNL     1       5.973   5.090 -22.319  0.00  0.00    +0.248 C 
ATOM      3  C   UNL     1       5.512   6.291 -22.127  0.00  0.00    +0.044 A 
ATOM      4  C   UNL     1       6.292   7.218 -21.657  0.00  0.00    +0.063 A 
ATOM      5  C   UNL     1       5.832   8.418 -21.464  0.00  0.00    +0.167 A 
ATOM      6  C   UNL     1       4.591   8.691 -21.742  0.00  0.00    +0.167 A 
ATOM      7  O   UNL     1       4.384   9.944 -21.464  0.00  0.00    -0.453 OA
ATOM      8  C   UNL     1       5.496  10.446 -21.014  0.00  0.00    +0.466 C 
ATOM      9  C   UNL     1       3.812   7.764 -22.212  0.00  0.00    +0.054 A 
ATOM     10  O   UNL     1       6.391   9.503 -21.014  0.00  0.00    -0.453 OA
ATOM     11  C   UNL     1       4.272   6.563 -22.405  0.00  0.00    -0.027 A 
ATOM     12  C   UNL     1       3.492   5.635 -22.875  0.00  0.00    +0.043 C 
ATOM     13  C   UNL     1       2.252   5.909 -23.152  0.00  0.00    +0.041 C 
ATOM     14  C   UNL     1       1.472   4.981 -23.623  0.00  0.00    +0.119 C 
ATOM     15  C   UNL     1       1.932   3.780 -23.816  0.00  0.00    +0.033 C 
ATOM     16  C   UNL     1       3.173   3.507 -23.538  0.00  0.00    +0.025 C 
ATOM     17  C   UNL     1       3.953   4.435 -23.067  0.00  0.00    +0.084 C 
ATOM     18  N   UNL     1       5.193   4.163 -22.790  0.00  0.00    -0.290 N 
ENDROOT
BRANCH  14  19
ATOM     19  O   UNL     1       0.232   5.253 -23.901  0.00  0.00    -0.372 OA
BRANCH  19  20
ATOM     20  C   UNL     1      -0.659   5.266 -22.953  0.00  0.00    +0.195 C 
BRANCH  20  21
ATOM     21  C   UNL     1      -1.713   4.511 -23.043  0.00  0.00    -0.022 A 
ATOM     22  C   UNL     1      -2.394   4.474 -24.149  0.00  0.00    +0.006 A 
ATOM     23  C   UNL     1      -3.449   3.718 -24.238  0.00  0.00    +0.000 A 
ATOM     24  C   UNL     1      -3.822   3.000 -23.220  0.00  0.00    +0.000 A 
ATOM     25  C   UNL     1      -3.140   3.037 -22.113  0.00  0.00    +0.000 A 
ATOM     26  C   UNL     1      -2.085   3.793 -22.025  0.00  0.00    +0.006 A 
ENDBRANCH  20  21
ENDBRANCH  19  20
ENDBRANCH  14  19
BRANCH  18  27
ATOM     27  C   UNL     1       5.654   2.962 -22.982  0.00  0.00    +0.143 C 
BRANCH  27  28
ATOM     28  C   UNL     1       5.281   1.990 -22.205  0.00  0.00    -0.030 A 
ATOM     29  C   UNL     1       4.502   1.055 -22.662  0.00  0.00    +0.005 A 
ATOM     30  C   UNL     1       4.128   0.082 -21.884  0.00  0.00    +0.000 A 
ATOM     31  C   UNL     1       4.535   0.044 -20.651  0.00  0.00    +0.000 A 
ATOM     32  C   UNL     1       5.314   0.978 -20.193  0.00  0.00    +0.000 A 
ATOM     33  C   UNL     1       5.687   1.952 -20.971  0.00  0.00    +0.005 A 
ENDBRANCH  27  28
ENDBRANCH  18  27
TORSDOF 5
ENDMDL
MODEL 3
REMARK VINA RESULT:    -7.973      2.914      7.477
REMARK INTER + INTRA:         -10.437
REMARK INTER:                 -10.151
REMARK INTRA:                  -0.286
REMARK UNBOUND:                -0.134
REMARK  Name = ZINC000000689938
REMARK  5 active torsions:
REMARK  status: ('A' for Active; 'I' for Inactive)
REMARK    1  A    between atoms: C_11  and  O_12
REMARK    2  A    between atoms: O_12  and  C_13
REMARK    3  A    between atoms: C_13  and  C_14
REMARK    4  A    between atoms: N_23  and  C_24
REMARK    5  A    between atoms: C_24  and  C_25
REMARK                            x       y       z     vdW  Elec       q    Type
REMARK                         _______ _______ _______ _____ _____    ______ ____
ROOT
ATOM      1  O   UNL     1       1.941   1.057 -24.413  0.00  0.00    -0.270 OA
ATOM      2  C   UNL     1       2.069   2.297 -24.043  0.00  0.00    +0.248 C 
ATOM      3  C   UNL     1       1.036   3.085 -24.043  0.00  0.00    +0.044 A 
ATOM      4  C   UNL     1      -0.126   2.633 -24.413  0.00  0.00    +0.063 A 
ATOM      5  C   UNL     1      -1.159   3.421 -24.413  0.00  0.00    +0.167 A 
ATOM      6  C   UNL     1      -1.032   4.662 -24.043  0.00  0.00    +0.167 A 
ATOM      7  O   UNL     1      -2.198   5.229 -24.132  0.00  0.00    -0.453 OA
ATOM      8  C   UNL     1      -3.047   4.340 -24.556  0.00  0.00    +0.466 C 
ATOM      9  C   UNL     1       0.129   5.112 -23.674  0.00  0.00    +0.054 A 
ATOM     10  O   UNL     1      -2.405   3.222 -24.730  0.00  0.00    -0.453 OA
ATOM     11  C   UNL     1       1.164   4.325 -23.673  0.00  0.00    -0.027 A 
ATOM     12  C   UNL     1       2.325   4.776 -23.304  0.00  0.00    +0.043 C 
ATOM     13  C   UNL     1       2.452   6.017 -22.935  0.00  0.00    +0.041 C 
ATOM     14  C   UNL     1       3.614   6.468 -22.565  0.00  0.00    +0.119 C 
ATOM     15  C   UNL     1       4.648   5.680 -22.565  0.00  0.00    +0.033 C 
ATOM     16  C   UNL     1       4.521   4.440 -22.935  0.00  0.00    +0.025 C 
ATOM     17  C   UNL     1       3.359   3.989 -23.304  0.00  0.00    +0.084 C 
ATOM     18  N   UNL     1       3.231   2.749 -23.673  0.00  0.00    -0.290 N 
ENDROOT
BRANCH  14  19
ATOM     19  O   UNL     1       3.742   7.708 -22.196  0.00  0.00    -0.372 OA
BRANCH  19  20
ATOM     20  C   UNL     1       4.892   8.146 -21.776  0.00  0.00    +0.195 C 
BRANCH  20  21
ATOM     21  C   UNL     1       5.051   9.409 -21.515  0.00  0.00    -0.022 A 
ATOM     22  C   UNL     1       6.106  10.034 -21.945  0.00  0.00    +0.006 A 
ATOM     23  C   UNL     1       6.264  11.299 -21.683  0.00  0.00    +0.000 A 
ATOM     24  C   UNL     1       5.366  11.936 -20.991  0.00  0.00    +0.000 A 
ATOM     25  C   UNL     1       4.311  11.311 -20.561  0.00  0.00    +0.000 A 
ATOM     26  C   UNL     1       4.153  10.046 -20.823  0.00  0.00    +0.006 A 
ENDBRANCH  20  21
ENDBRANCH  19  20
ENDBRANCH  14  19
BRANCH  18  27
ATOM     27  C   UNL     1       4.265   1.960 -23.674  0.00  0.00    +0.143 C 
BRANCH  27  28
ATOM     28  C   UNL     1       4.550   1.261 -22.616  0.00  0.00    -0.030 A 
ATOM     29  C   UNL     1       5.770   0.863 -22.410  0.00  0.00    +0.005 A 
ATOM     30  C   UNL     1       6.056   0.163 -21.352  0.00  0.00    +0.000 A 
ATOM     31  C   UNL     1       5.121  -0.139 -20.501  0.00  0.00    +0.000 A 
ATOM     32  C   UNL     1       3.901   0.259 -20.706  0.00  0.00    +0.000 A 
ATOM     33  C   UNL     1       3.615   0.959 -21.765  0.00  0.00    +0.005 A 
ENDBRANCH  27  28
ENDBRANCH  18  27
TORSDOF 5
ENDMDL
MODEL 4
REMARK VINA RESULT:    -7.954      1.691      6.410
REMARK INTER + INTRA:         -10.413
REMARK INTER:                  -9.944
REMARK INTRA:                  -0.470
REMARK UNBOUND:                -0.134
REMARK  Name = ZINC000000689938
REMARK  5 active torsions:
REMARK  status: ('A' for Active; 'I' for Inactive)
REMARK    1  A    between atoms: C_11  and  O_12
REMARK    2  A    between atoms: O_12  and  C_13
REMARK    3  A    between atoms: C_13  and  C_14
REMARK    4  A    between atoms: N_23  and  C_24
REMARK    5  A    between atoms: C_24  and  C_25
REMARK                            x       y       z     vdW  Elec       q    Type
REMARK                         _______ _______ _______ _____ _____    ______ ____
ROOT
ATOM      1  O   UNL     1       5.002   2.329 -23.742  0.00  0.00    -0.270 OA
ATOM      2  C   UNL     1       4.694   3.529 -23.349  0.00  0.00    +0.248 C 
ATOM      3  C   UNL     1       3.463   3.940 -23.418  0.00  0.00    +0.044 A 
ATOM      4  C   UNL     1       2.540   3.150 -23.881  0.00  0.00    +0.063 A 
ATOM      5  C   UNL     1       1.309   3.561 -23.951  0.00  0.00    +0.167 A 
ATOM      6  C   UNL     1       1.000   4.761 -23.557  0.00  0.00    +0.167 A 
ATOM      7  O   UNL     1      -0.278   4.924 -23.728  0.00  0.00    -0.453 OA
ATOM      8  C   UNL     1      -0.760   3.824 -24.227  0.00  0.00    +0.466 C 
ATOM      9  C   UNL     1       1.923   5.550 -23.095  0.00  0.00    +0.054 A 
ATOM     10  O   UNL     1       0.220   2.981 -24.365  0.00  0.00    -0.453 OA
ATOM     11  C   UNL     1       3.155   5.140 -23.025  0.00  0.00    -0.027 A 
ATOM     12  C   UNL     1       4.078   5.929 -22.562  0.00  0.00    +0.043 C 
ATOM     13  C   UNL     1       3.769   7.129 -22.168  0.00  0.00    +0.041 C 
ATOM     14  C   UNL     1       4.693   7.918 -21.705  0.00  0.00    +0.119 C 
ATOM     15  C   UNL     1       5.924   7.509 -21.635  0.00  0.00    +0.033 C 
ATOM     16  C   UNL     1       6.233   6.308 -22.029  0.00  0.00    +0.025 C 
ATOM     17  C   UNL     1       5.309   5.519 -22.492  0.00  0.00    +0.084 C 
ATOM     18  N   UNL     1       5.617   4.319 -22.886  0.00  0.00    -0.290 N 
ENDROOT
BRANCH  14  19
ATOM     19  O   UNL     1       4.385   9.119 -21.312  0.00  0.00    -0.372 OA
BRANCH  19  20
ATOM     20  C   UNL     1       4.443  10.112 -22.148  0.00  0.00    +0.195 C 
BRANCH  20  21
ATOM     21  C   UNL     1       3.766  11.198 -21.918  0.00  0.00    -0.022 A 
ATOM     22  C   UNL     1       3.660  11.651 -20.704  0.00  0.00    +0.006 A 
ATOM     23  C   UNL     1       2.982  12.737 -20.473  0.00  0.00    +0.000 A 
ATOM     24  C   UNL     1       2.411  13.367 -21.457  0.00  0.00    +0.000 A 
ATOM     25  C   UNL     1       2.517  12.914 -22.670  0.00  0.00    +0.000 A 
ATOM     26  C   UNL     1       3.195  11.828 -22.901  0.00  0.00    +0.006 A 
ENDBRANCH  20  21
ENDBRANCH  19  20
ENDBRANCH  14  19
BRANCH  18  27
ATOM     27  C   UNL     1       6.849   3.908 -22.816  0.00  0.00    +0.143 C 
BRANCH  27  28
ATOM     28  C   UNL     1       7.587   3.879 -23.885  0.00  0.00    -0.030 A 
ATOM     29  C   UNL     1       7.594   4.896 -24.696  0.00  0.00    +0.005 A 
ATOM     30  C   UNL     1       8.333   4.868 -25.766  0.00  0.00    +0.000 A 
ATOM     31  C   UNL     1       9.062   3.824 -26.026  0.00  0.00    +0.000 A 
ATOM     32  C   UNL     1       9.055   2.808 -25.215  0.00  0.00    +0.000 A 
ATOM     33  C   UNL     1       8.316   2.836 -24.145  0.00  0.00    +0.005 A 
ENDBRANCH  27  28
ENDBRANCH  18  27
TORSDOF 5
ENDMDL
MODEL 5
REMARK VINA RESULT:    -7.860      3.603      8.621
REMARK INTER + INTRA:         -10.291
REMARK INTER:                  -9.818
REMARK INTRA:                  -0.473
REMARK UNBOUND:                -0.134
REMARK  Name = ZINC000000689938
REMARK  5 active torsions:
REMARK  status: ('A' for Active; 'I' for Inactive)
REMARK    1  A    between atoms: C_11  and  O_12
REMARK    2  A    between atoms: O_12  and  C_13
REMARK    3  A    between atoms: C_13  and  C_14
REMARK    4  A    between atoms: N_23  and  C_24
REMARK    5  A    between atoms: C_24  and  C_25
REMARK                            x       y       z     vdW  Elec       q    Type
REMARK                         _______ _______ _______ _____ _____    ______ ____
ROOT
ATOM      1  O   UNL     1       0.044   0.360 -22.483  0.00  0.00    -0.270 OA
ATOM      2  C   UNL     1       0.741   1.456 -22.547  0.00  0.00    +0.248 C 
ATOM      3  C   UNL     1       1.969   1.472 -22.119  0.00  0.00    +0.044 A 
ATOM      4  C   UNL     1       2.498   0.392 -21.626  0.00  0.00    +0.063 A 
ATOM      5  C   UNL     1       3.725   0.407 -21.197  0.00  0.00    +0.167 A 
ATOM      6  C   UNL     1       4.423   1.503 -21.261  0.00  0.00    +0.167 A 
ATOM      7  O   UNL     1       5.603   1.257 -20.775  0.00  0.00    -0.453 OA
ATOM      8  C   UNL     1       5.635   0.009 -20.410  0.00  0.00    +0.466 C 
ATOM      9  C   UNL     1       3.893   2.582 -21.754  0.00  0.00    +0.054 A 
ATOM     10  O   UNL     1       4.475  -0.517 -20.671  0.00  0.00    -0.453 OA
ATOM     11  C   UNL     1       2.666   2.567 -22.183  0.00  0.00    -0.027 A 
ATOM     12  C   UNL     1       2.135   3.647 -22.676  0.00  0.00    +0.043 C 
ATOM     13  C   UNL     1       2.834   4.742 -22.740  0.00  0.00    +0.041 C 
ATOM     14  C   UNL     1       2.303   5.821 -23.233  0.00  0.00    +0.119 C 
ATOM     15  C   UNL     1       1.076   5.807 -23.662  0.00  0.00    +0.033 C 
ATOM     16  C   UNL     1       0.378   4.711 -23.598  0.00  0.00    +0.025 C 
ATOM     17  C   UNL     1       0.909   3.631 -23.105  0.00  0.00    +0.084 C 
ATOM     18  N   UNL     1       0.212   2.536 -23.040  0.00  0.00    -0.290 N 
ENDROOT
BRANCH  14  19
ATOM     19  O   UNL     1       3.000   6.917 -23.297  0.00  0.00    -0.372 OA
BRANCH  19  20
ATOM     20  C   UNL     1       3.934   7.146 -22.422  0.00  0.00    +0.195 C 
BRANCH  20  21
ATOM     21  C   UNL     1       4.013   8.308 -21.844  0.00  0.00    -0.022 A 
ATOM     22  C   UNL     1       4.069   9.389 -22.564  0.00  0.00    +0.006 A 
ATOM     23  C   UNL     1       4.148  10.551 -21.986  0.00  0.00    +0.000 A 
ATOM     24  C   UNL     1       4.171  10.631 -20.688  0.00  0.00    +0.000 A 
ATOM     25  C   UNL     1       4.115   9.550 -19.969  0.00  0.00    +0.000 A 
ATOM     26  C   UNL     1       4.036   8.387 -20.547  0.00  0.00    +0.006 A 
ENDBRANCH  20  21
ENDBRANCH  19  20
ENDBRANCH  14  19
BRANCH  18  27
ATOM     27  C   UNL     1      -1.016   2.520 -23.469  0.00  0.00    +0.143 C 
BRANCH  27  28
ATOM     28  C   UNL     1      -1.988   2.848 -22.671  0.00  0.00    -0.030 A 
ATOM     29  C   UNL     1      -3.183   3.036 -23.147  0.00  0.00    +0.005 A 
ATOM     30  C   UNL     1      -4.156   3.364 -22.349  0.00  0.00    +0.000 A 
ATOM     31  C   UNL     1      -3.934   3.503 -21.076  0.00  0.00    +0.000 A 
ATOM     32  C   UNL     1      -2.739   3.315 -20.600  0.00  0.00    +0.000 A 
ATOM     33  C   UNL     1      -1.766   2.987 -21.399  0.00  0.00    +0.005 A 
ENDBRANCH  27  28
ENDBRANCH  18  27
TORSDOF 5
ENDMDL
MODEL 6
REMARK VINA RESULT:    -7.085      1.428      6.751
REMARK INTER + INTRA:          -9.290
REMARK INTER:                  -8.969
REMARK INTRA:                  -0.321
REMARK UNBOUND:                -0.134
REMARK  Name = ZINC000000689938
REMARK  5 active torsions:
REMARK  status: ('A' for Active; 'I' for Inactive)
REMARK    1  A    between atoms: C_11  and  O_12
REMARK    2  A    between atoms: O_12  and  C_13
REMARK    3  A    between atoms: C_13  and  C_14
REMARK    4  A    between atoms: N_23  and  C_24
REMARK    5  A    between atoms: C_24  and  C_25
REMARK                            x       y       z     vdW  Elec       q    Type
REMARK                         _______ _______ _______ _____ _____    ______ ____
ROOT
ATOM      1  O   UNL     1       1.589   6.002 -22.991  0.00  0.00    -0.270 OA
ATOM      2  C   UNL     1       2.831   5.621 -22.984  0.00  0.00    +0.248 C 
ATOM      3  C   UNL     1       3.753   6.419 -22.532  0.00  0.00    +0.044 A 
ATOM      4  C   UNL     1       3.431   7.598 -22.089  0.00  0.00    +0.063 A 
ATOM      5  C   UNL     1       4.352   8.396 -21.638  0.00  0.00    +0.167 A 
ATOM      6  C   UNL     1       5.596   8.015 -21.630  0.00  0.00    +0.167 A 
ATOM      7  O   UNL     1       6.309   8.984 -21.136  0.00  0.00    -0.453 OA
ATOM      8  C   UNL     1       5.507   9.963 -20.838  0.00  0.00    +0.466 C 
ATOM      9  C   UNL     1       5.917   6.837 -22.073  0.00  0.00    +0.054 A 
ATOM     10  O   UNL     1       4.298   9.600 -21.148  0.00  0.00    -0.453 OA
ATOM     11  C   UNL     1       4.996   6.038 -22.524  0.00  0.00    -0.027 A 
ATOM     12  C   UNL     1       5.317   4.859 -22.968  0.00  0.00    +0.043 C 
ATOM     13  C   UNL     1       6.561   4.480 -22.959  0.00  0.00    +0.041 C 
ATOM     14  C   UNL     1       6.882   3.300 -23.403  0.00  0.00    +0.119 C 
ATOM     15  C   UNL     1       5.961   2.502 -23.855  0.00  0.00    +0.033 C 
ATOM     16  C   UNL     1       4.717   2.882 -23.863  0.00  0.00    +0.025 C 
ATOM     17  C   UNL     1       4.396   4.061 -23.419  0.00  0.00    +0.084 C 
ATOM     18  N   UNL     1       3.153   4.442 -23.427  0.00  0.00    -0.290 N 
ENDROOT
BRANCH  14  19
ATOM     19  O   UNL     1       8.125   2.920 -23.395  0.00  0.00    -0.372 OA
BRANCH  19  20
ATOM     20  C   UNL     1       9.062   3.749 -23.749  0.00  0.00    +0.195 C 
BRANCH  20  21
ATOM     21  C   UNL     1       9.026   4.309 -24.922  0.00  0.00    -0.022 A 
ATOM     22  C   UNL     1       9.032   3.573 -25.993  0.00  0.00    +0.006 A 
ATOM     23  C   UNL     1       8.996   4.133 -27.166  0.00  0.00    +0.000 A 
ATOM     24  C   UNL     1       8.955   5.428 -27.267  0.00  0.00    +0.000 A 
ATOM     25  C   UNL     1       8.949   6.164 -26.195  0.00  0.00    +0.000 A 
ATOM     26  C   UNL     1       8.984   5.604 -25.022  0.00  0.00    +0.006 A 
ENDBRANCH  20  21
ENDBRANCH  19  20
ENDBRANCH  14  19
BRANCH  18  27
ATOM     27  C   UNL     1       2.232   3.644 -23.878  0.00  0.00    +0.143 C 
BRANCH  27  28
ATOM     28  C   UNL     1       1.505   2.955 -23.050  0.00  0.00    -0.030 A 
ATOM     29  C   UNL     1       0.209   3.046 -23.093  0.00  0.00    +0.005 A 
ATOM     30  C   UNL     1      -0.519   2.356 -22.264  0.00  0.00    +0.000 A 
ATOM     31  C   UNL     1       0.050   1.576 -21.394  0.00  0.00    +0.000 A 
ATOM     32  C   UNL     1       1.346   1.485 -21.351  0.00  0.00    +0.000 A 
ATOM     33  C   UNL     1       2.074   2.175 -22.180  0.00  0.00    +0.005 A 
ENDBRANCH  27  28
ENDBRANCH  18  27
TORSDOF 5
ENDMDL
MODEL 7
REMARK VINA RESULT:    -6.395      2.906      5.750
REMARK INTER + INTRA:          -8.398
REMARK INTER:                  -8.302
REMARK INTRA:                  -0.096
REMARK UNBOUND:                -0.134
REMARK  Name = ZINC000000689938
REMARK  5 active torsions:
REMARK  status: ('A' for Active; 'I' for Inactive)
REMARK    1  A    between atoms: C_11  and  O_12
REMARK    2  A    between atoms: O_12  and  C_13
REMARK    3  A    between atoms: C_13  and  C_14
REMARK    4  A    between atoms: N_23  and  C_24
REMARK    5  A    between atoms: C_24  and  C_25
REMARK                            x       y       z     vdW  Elec       q    Type
REMARK                         _______ _______ _______ _____ _____    ______ ____
ROOT
ATOM      1  O   UNL     1       6.075   4.980 -21.865  0.00  0.00    -0.270 OA
ATOM      2  C   UNL     1       4.904   4.486 -22.139  0.00  0.00    +0.248 C 
ATOM      3  C   UNL     1       4.619   3.264 -21.801  0.00  0.00    +0.044 A 
ATOM      4  C   UNL     1       5.505   2.536 -21.187  0.00  0.00    +0.063 A 
ATOM      5  C   UNL     1       5.220   1.314 -20.849  0.00  0.00    +0.167 A 
ATOM      6  C   UNL     1       4.049   0.819 -21.123  0.00  0.00    +0.167 A 
ATOM      7  O   UNL     1       4.017  -0.404 -20.685  0.00  0.00    -0.453 OA
ATOM      8  C   UNL     1       5.168  -0.666 -20.140  0.00  0.00    +0.466 C 
ATOM      9  C   UNL     1       3.164   1.547 -21.736  0.00  0.00    +0.054 A 
ATOM     10  O   UNL     1       5.912   0.396 -20.241  0.00  0.00    -0.453 OA
ATOM     11  C   UNL     1       3.448   2.769 -22.075  0.00  0.00    -0.027 A 
ATOM     12  C   UNL     1       2.563   3.498 -22.688  0.00  0.00    +0.043 C 
ATOM     13  C   UNL     1       1.392   3.002 -22.962  0.00  0.00    +0.041 C 
ATOM     14  C   UNL     1       0.507   3.730 -23.575  0.00  0.00    +0.119 C 
ATOM     15  C   UNL     1       0.791   4.953 -23.914  0.00  0.00    +0.033 C 
ATOM     16  C   UNL     1       1.962   5.448 -23.640  0.00  0.00    +0.025 C 
ATOM     17  C   UNL     1       2.848   4.719 -23.027  0.00  0.00    +0.084 C 
ATOM     18  N   UNL     1       4.018   5.214 -22.752  0.00  0.00    -0.290 N 
ENDROOT
BRANCH  14  19
ATOM     19  O   UNL     1      -0.664   3.236 -23.849  0.00  0.00    -0.372 OA
BRANCH  19  20
ATOM     20  C   UNL     1      -1.238   2.422 -23.013  0.00  0.00    +0.195 C 
BRANCH  20  21
ATOM     21  C   UNL     1      -2.298   2.800 -22.362  0.00  0.00    -0.022 A 
ATOM     22  C   UNL     1      -3.419   2.980 -22.995  0.00  0.00    +0.006 A 
ATOM     23  C   UNL     1      -4.480   3.358 -22.343  0.00  0.00    +0.000 A 
ATOM     24  C   UNL     1      -4.417   3.556 -21.060  0.00  0.00    +0.000 A 
ATOM     25  C   UNL     1      -3.296   3.376 -20.427  0.00  0.00    +0.000 A 
ATOM     26  C   UNL     1      -2.235   2.998 -21.079  0.00  0.00    +0.006 A 
ENDBRANCH  20  21
ENDBRANCH  19  20
ENDBRANCH  14  19
BRANCH  18  27
ATOM     27  C   UNL     1       4.304   6.436 -23.091  0.00  0.00    +0.143 C 
BRANCH  27  28
ATOM     28  C   UNL     1       4.681   7.290 -22.188  0.00  0.00    -0.030 A 
ATOM     29  C   UNL     1       5.915   7.698 -22.155  0.00  0.00    +0.005 A 
ATOM     30  C   UNL     1       6.293   8.553 -21.250  0.00  0.00    +0.000 A 
ATOM     31  C   UNL     1       5.437   9.000 -20.380  0.00  0.00    +0.000 A 
ATOM     32  C   UNL     1       4.203   8.592 -20.413  0.00  0.00    +0.000 A 
ATOM     33  C   UNL     1       3.825   7.737 -21.317  0.00  0.00    +0.005 A 
ENDBRANCH  27  28
ENDBRANCH  18  27
TORSDOF 5
ENDMDL
MODEL 8
REMARK VINA RESULT:    -6.133      1.789      5.327
REMARK INTER + INTRA:          -8.060
REMARK INTER:                  -7.926
REMARK INTRA:                  -0.134
REMARK UNBOUND:                -0.134
REMARK  Name = ZINC000000689938
REMARK  5 active torsions:
REMARK  status: ('A' for Active; 'I' for Inactive)
REMARK    1  A    between atoms: C_11  and  O_12
REMARK    2  A    between atoms: O_12  and  C_13
REMARK    3  A    between atoms: C_13  and  C_14
REMARK    4  A    between atoms: N_23  and  C_24
REMARK    5  A    between atoms: C_24  and  C_25
REMARK                            x       y       z     vdW  Elec       q    Type
REMARK                         _______ _______ _______ _____ _____    ______ ____
ROOT
ATOM      1  O   UNL     1       6.378   7.405 -21.341  0.00  0.00    -0.270 OA
ATOM      2  C   UNL     1       5.583   6.592 -21.971  0.00  0.00    +0.248 C 
ATOM      3  C   UNL     1       6.071   5.573 -22.615  0.00  0.00    +0.044 A 
ATOM      4  C   UNL     1       7.355   5.369 -22.629  0.00  0.00    +0.063 A 
ATOM      5  C   UNL     1       7.843   4.351 -23.273  0.00  0.00    +0.167 A 
ATOM      6  C   UNL     1       7.047   3.537 -23.903  0.00  0.00    +0.167 A 
ATOM      7  O   UNL     1       7.775   2.614 -24.459  0.00  0.00    -0.453 OA
ATOM      8  C   UNL     1       9.020   2.857 -24.173  0.00  0.00    +0.466 C 
ATOM      9  C   UNL     1       5.765   3.742 -23.888  0.00  0.00    +0.054 A 
ATOM     10  O   UNL     1       9.062   3.930 -23.440  0.00  0.00    -0.453 OA
ATOM     11  C   UNL     1       5.275   4.760 -23.245  0.00  0.00    -0.027 A 
ATOM     12  C   UNL     1       3.992   4.966 -23.230  0.00  0.00    +0.043 C 
ATOM     13  C   UNL     1       3.197   4.152 -23.860  0.00  0.00    +0.041 C 
ATOM     14  C   UNL     1       1.914   4.357 -23.845  0.00  0.00    +0.119 C 
ATOM     15  C   UNL     1       1.424   5.375 -23.202  0.00  0.00    +0.033 C 
ATOM     16  C   UNL     1       2.220   6.189 -22.571  0.00  0.00    +0.025 C 
ATOM     17  C   UNL     1       3.504   5.984 -22.586  0.00  0.00    +0.084 C 
ATOM     18  N   UNL     1       4.299   6.797 -21.957  0.00  0.00    -0.290 N 
ENDROOT
BRANCH  14  19
ATOM     19  O   UNL     1       1.118   3.544 -24.475  0.00  0.00    -0.372 OA
BRANCH  19  20
ATOM     20  C   UNL     1       0.224   2.868 -23.815  0.00  0.00    +0.195 C 
BRANCH  20  21
ATOM     21  C   UNL     1      -1.039   3.132 -23.974  0.00  0.00    -0.022 A 
ATOM     22  C   UNL     1      -1.843   3.097 -22.954  0.00  0.00    +0.006 A 
ATOM     23  C   UNL     1      -3.107   3.361 -23.114  0.00  0.00    +0.000 A 
ATOM     24  C   UNL     1      -3.564   3.660 -24.293  0.00  0.00    +0.000 A 
ATOM     25  C   UNL     1      -2.759   3.696 -25.314  0.00  0.00    +0.000 A 
ATOM     26  C   UNL     1      -1.495   3.432 -25.154  0.00  0.00    +0.006 A 
ENDBRANCH  20  21
ENDBRANCH  19  20
ENDBRANCH  14  19
BRANCH  18  27
ATOM     27  C   UNL     1       3.811   7.815 -21.312  0.00  0.00    +0.143 C 
BRANCH  27  28
ATOM     28  C   UNL     1       4.194   9.020 -21.614  0.00  0.00    -0.030 A 
ATOM     29  C   UNL     1       3.989   9.486 -22.810  0.00  0.00    +0.005 A 
ATOM     30  C   UNL     1       4.373  10.692 -23.112  0.00  0.00    +0.000 A 
ATOM     31  C   UNL     1       4.960  11.430 -22.218  0.00  0.00    +0.000 A 
ATOM     32  C   UNL     1       5.165  10.964 -21.022  0.00  0.00    +0.000 A 
ATOM     33  C   UNL     1       4.782   9.758 -20.720  0.00  0.00    +0.005 A 
ENDBRANCH  27  28
ENDBRANCH  18  27
TORSDOF 5
ENDMDL
