MODEL 1
REMARK VINA RESULT:   -11.058      0.000      0.000
REMARK INTER + INTRA:          -9.256
REMARK INTER:                 -12.945
REMARK INTRA:                   3.688
REMARK UNBOUND:                 3.741
REMARK  Name = COc1ccc2c3c1OC1=C[C@@H](C(C)(C)O)C=C4[C@H](C2)N(C)CC[C@]143          ZINC000100393821
REMARK  7 active torsions:
REMARK  status: ('A' for Active; 'I' for Inactive)
REMARK    1  A    between atoms: C_1  and  O_2
REMARK    2  A    between atoms: O_2  and  C_3
REMARK    3  A    between atoms: C_12  and  C_13
REMARK    4  A    between atoms: C_13  and  C_14
REMARK    5  A    between atoms: C_13  and  C_15
REMARK    6  A    between atoms: C_13  and  O_16
REMARK    7  A    between atoms: N_21  and  C_22
REMARK                            x       y       z     vdW  Elec       q    Type
REMARK                         _______ _______ _______ _____ _____    ______ ____
ROOT
ATOM      1  C   UNL     1      -4.496   3.439 -22.470  0.00  0.00    +0.162 A 
ATOM      2  C   UNL     1      -4.742   3.933 -23.611  0.00  0.00    +0.050 A 
ATOM      3  C   UNL     1      -3.845   3.992 -24.486  0.00  0.00    +0.008 A 
ATOM      4  C   UNL     1      -2.694   3.559 -24.228  0.00  0.00    -0.034 A 
ATOM      5  C   UNL     1      -2.427   3.063 -23.098  0.00  0.00    +0.020 A 
ATOM      6  C   UNL     1      -1.278   2.632 -22.847  0.00  0.00    +0.088 C 
ATOM      7  C   UNL     1      -0.009   2.110 -22.443  0.00  0.00    +0.075 C 
ATOM      8  C   UNL     1       1.024   2.163 -23.409  0.00  0.00    +0.133 C 
ATOM      9  N   UNL     1       0.713   2.721 -24.671  0.00  0.00    +0.239 N 
ATOM     10  H   UNL     1       1.421   2.783 -25.402  0.00  0.00    +0.204 HD
ATOM     11  C   UNL     1       1.571   2.805 -25.581  0.00  0.00    +0.191 C 
ATOM     12  C   UNL     1      -0.626   3.184 -24.860  0.00  0.00    +0.096 C 
ATOM     13  C   UNL     1      -0.377   2.689 -23.719  0.00  0.00    -0.007 C 
ATOM     14  C   UNL     1       0.784   2.253 -23.461  0.00  0.00    -0.011 C 
ATOM     15  C   UNL     1       1.036   1.762 -22.333  0.00  0.00    +0.069 C 
ATOM     16  C   UNL     1       0.131   1.700 -21.447  0.00  0.00    +0.026 C 
ATOM     17  C   UNL     1      -1.019   2.131 -21.698  0.00  0.00    +0.117 C 
ATOM     18  O   UNL     1      -2.426   2.360 -21.198  0.00  0.00    -0.455 OA
ATOM     19  C   UNL     1      -1.775   3.616 -25.115  0.00  0.00    +0.094 C 
ATOM     20  C   UNL     1      -3.332   3.002 -22.214  0.00  0.00    +0.174 A 
ENDROOT
BRANCH  15  21
ATOM     21  C   UNL     1       2.189   1.330 -22.081  0.00  0.00    +0.070 C 
ATOM     22  C   UNL     1       2.998   2.037 -21.432  0.00  0.00    +0.042 C 
ATOM     23  C   UNL     1       3.053   0.422 -22.164  0.00  0.00    +0.042 C 
BRANCH  21  24
ATOM     24  O   UNL     1       1.922   0.262 -22.684  0.00  0.00    -0.388 OA
ATOM     25  H   UNL     1       1.041  -0.046 -22.421  0.00  0.00    +0.210 HD
ENDBRANCH  21  24
ENDBRANCH  15  21
BRANCH   1  27
ATOM     26  C   UNL     1      -6.438   2.716 -21.814  0.00  0.00    +0.277 C 
ATOM     27  O   UNL     1      -5.397   3.382 -21.599  0.00  0.00    -0.491 OA
ENDBRANCH   1  27
TORSDOF 3
ENDMDL
MODEL 2
REMARK VINA RESULT:   -10.304      1.916      6.033
REMARK INTER + INTRA:          -8.370
REMARK INTER:                 -12.072
REMARK INTRA:                   3.701
REMARK UNBOUND:                 3.741
REMARK  Name = COc1ccc2c3c1OC1=C[C@@H](C(C)(C)O)C=C4[C@H](C2)N(C)CC[C@]143          ZINC000100393821
REMARK  7 active torsions:
REMARK  status: ('A' for Active; 'I' for Inactive)
REMARK    1  A    between atoms: C_1  and  O_2
REMARK    2  A    between atoms: O_2  and  C_3
REMARK    3  A    between atoms: C_12  and  C_13
REMARK    4  A    between atoms: C_13  and  C_14
REMARK    5  A    between atoms: C_13  and  C_15
REMARK    6  A    between atoms: C_13  and  O_16
REMARK    7  A    between atoms: N_21  and  C_22
REMARK                            x       y       z     vdW  Elec       q    Type
REMARK                         _______ _______ _______ _____ _____    ______ ____
ROOT
ATOM      1  C   UNL     1       2.639   1.933 -23.177  0.00  0.00    +0.162 A 
ATOM      2  C   UNL     1       2.665   1.520 -21.978  0.00  0.00    +0.050 A 
ATOM      3  C   UNL     1       1.613   1.475 -21.298  0.00  0.00    +0.008 A 
ATOM      4  C   UNL     1       0.525   1.842 -21.809  0.00  0.00    -0.034 A 
ATOM      5  C   UNL     1       0.476   2.257 -23.000  0.00  0.00    +0.020 A 
ATOM      6  C   UNL     1      -0.611   2.621 -23.503  0.00  0.00    +0.088 C 
ATOM      7  C   UNL     1      -1.788   3.062 -24.186  0.00  0.00    +0.075 C 
ATOM      8  C   UNL     1      -2.993   3.023 -23.444  0.00  0.00    +0.133 C 
ATOM      9  N   UNL     1      -2.926   2.556 -22.110  0.00  0.00    +0.239 N 
ATOM     10  H   UNL     1      -3.764   2.508 -21.532  0.00  0.00    +0.204 HD
ATOM     11  C   UNL     1      -3.946   2.490 -21.385  0.00  0.00    +0.191 C 
ATOM     12  C   UNL     1      -1.639   2.164 -21.627  0.00  0.00    +0.096 C 
ATOM     13  C   UNL     1      -1.668   2.577 -22.826  0.00  0.00    -0.007 C 
ATOM     14  C   UNL     1      -2.766   2.947 -23.339  0.00  0.00    -0.011 C 
ATOM     15  C   UNL     1      -2.800   3.357 -24.525  0.00  0.00    +0.069 C 
ATOM     16  C   UNL     1      -1.738   3.404 -25.216  0.00  0.00    +0.026 C 
ATOM     17  C   UNL     1      -0.649   3.040 -24.712  0.00  0.00    +0.117 C 
ATOM     18  O   UNL     1       0.837   2.842 -24.905  0.00  0.00    -0.455 OA
ATOM     19  C   UNL     1      -0.552   1.798 -21.120  0.00  0.00    +0.094 C 
ATOM     20  C   UNL     1       1.538   2.303 -23.689  0.00  0.00    +0.174 A 
ENDROOT
BRANCH  15  21
ATOM     21  C   UNL     1      -3.892   3.723 -25.031  0.00  0.00    +0.070 C 
ATOM     22  C   UNL     1      -4.415   4.808 -24.679  0.00  0.00    +0.042 C 
ATOM     23  C   UNL     1      -4.849   3.518 -25.817  0.00  0.00    +0.042 C 
BRANCH  21  24
ATOM     24  O   UNL     1      -3.919   2.681 -25.729  0.00  0.00    -0.388 OA
ATOM     25  H   UNL     1      -3.274   2.044 -25.384  0.00  0.00    +0.210 HD
ENDBRANCH  21  24
ENDBRANCH  15  21
BRANCH   1  27
ATOM     26  C   UNL     1       4.549   2.869 -23.630  0.00  0.00    +0.277 C 
ATOM     27  O   UNL     1       3.696   1.977 -23.853  0.00  0.00    -0.491 OA
ENDBRANCH   1  27
TORSDOF 3
ENDMDL
MODEL 3
REMARK VINA RESULT:   -10.185      1.324      5.465
REMARK INTER + INTRA:          -8.230
REMARK INTER:                 -12.045
REMARK INTRA:                   3.815
REMARK UNBOUND:                 3.741
REMARK  Name = COc1ccc2c3c1OC1=C[C@@H](C(C)(C)O)C=C4[C@H](C2)N(C)CC[C@]143          ZINC000100393821
REMARK  7 active torsions:
REMARK  status: ('A' for Active; 'I' for Inactive)
REMARK    1  A    between atoms: C_1  and  O_2
REMARK    2  A    between atoms: O_2  and  C_3
REMARK    3  A    between atoms: C_12  and  C_13
REMARK    4  A    between atoms: C_13  and  C_14
REMARK    5  A    between atoms: C_13  and  C_15
REMARK    6  A    between atoms: C_13  and  O_16
REMARK    7  A    between atoms: N_21  and  C_22
REMARK                            x       y       z     vdW  Elec       q    Type
REMARK                         _______ _______ _______ _____ _____    ______ ____
ROOT
ATOM      1  C   UNL     1       3.098   0.812 -22.679  0.00  0.00    +0.162 A 
ATOM      2  C   UNL     1       3.473   1.191 -23.829  0.00  0.00    +0.050 A 
ATOM      3  C   UNL     1       2.725   1.903 -24.540  0.00  0.00    +0.008 A 
ATOM      4  C   UNL     1       1.595   2.243 -24.108  0.00  0.00    -0.034 A 
ATOM      5  C   UNL     1       1.201   1.877 -22.966  0.00  0.00    +0.020 A 
ATOM      6  C   UNL     1       0.073   2.220 -22.541  0.00  0.00    +0.088 C 
ATOM      7  C   UNL     1      -1.188   2.545 -21.950  0.00  0.00    +0.075 C 
ATOM      8  C   UNL     1      -2.055   3.348 -22.728  0.00  0.00    +0.133 C 
ATOM      9  N   UNL     1      -1.603   3.752 -24.006  0.00  0.00    +0.239 N 
ATOM     10  H   UNL     1      -2.188   4.331 -24.608  0.00  0.00    +0.204 HD
ATOM     11  C   UNL     1      -2.309   4.464 -24.759  0.00  0.00    +0.191 C 
ATOM     12  C   UNL     1      -0.302   3.310 -24.400  0.00  0.00    +0.096 C 
ATOM     13  C   UNL     1      -0.680   2.933 -23.250  0.00  0.00    -0.007 C 
ATOM     14  C   UNL     1      -1.820   3.276 -22.816  0.00  0.00    -0.011 C 
ATOM     15  C   UNL     1      -2.199   2.905 -21.678  0.00  0.00    +0.069 C 
ATOM     16  C   UNL     1      -1.444   2.185 -20.957  0.00  0.00    +0.026 C 
ATOM     17  C   UNL     1      -0.316   1.843 -21.382  0.00  0.00    +0.117 C 
ATOM     18  O   UNL     1       0.966   1.088 -21.116  0.00  0.00    -0.455 OA
ATOM     19  C   UNL     1       0.827   2.970 -24.829  0.00  0.00    +0.094 C 
ATOM     20  C   UNL     1       1.955   1.158 -22.247  0.00  0.00    +0.174 A 
ENDROOT
BRANCH  15  21
ATOM     21  C   UNL     1      -3.331   3.249 -21.252  0.00  0.00    +0.070 C 
ATOM     22  C   UNL     1      -3.423   4.039 -20.281  0.00  0.00    +0.042 C 
ATOM     23  C   UNL     1      -4.583   3.188 -21.321  0.00  0.00    +0.042 C 
BRANCH  21  24
ATOM     24  O   UNL     1      -3.878   2.535 -22.127  0.00  0.00    -0.388 OA
ATOM     25  H   UNL     1      -4.610   3.025 -22.533  0.00  0.00    +0.210 HD
ENDBRANCH  21  24
ENDBRANCH  15  21
BRANCH   1  27
ATOM     26  C   UNL     1       4.458   0.603 -20.996  0.00  0.00    +0.277 C 
ATOM     27  O   UNL     1       3.851   0.100 -21.971  0.00  0.00    -0.491 OA
ENDBRANCH   1  27
TORSDOF 3
ENDMDL
MODEL 4
REMARK VINA RESULT:   -10.106      1.700      2.751
REMARK INTER + INTRA:          -8.137
REMARK INTER:                 -11.824
REMARK INTRA:                   3.688
REMARK UNBOUND:                 3.741
REMARK  Name = COc1ccc2c3c1OC1=C[C@@H](C(C)(C)O)C=C4[C@H](C2)N(C)CC[C@]143          ZINC000100393821
REMARK  7 active torsions:
REMARK  status: ('A' for Active; 'I' for Inactive)
REMARK    1  A    between atoms: C_1  and  O_2
REMARK    2  A    between atoms: O_2  and  C_3
REMARK    3  A    between atoms: C_12  and  C_13
REMARK    4  A    between atoms: C_13  and  C_14
REMARK    5  A    between atoms: C_13  and  C_15
REMARK    6  A    between atoms: C_13  and  O_16
REMARK    7  A    between atoms: N_21  and  C_22
REMARK                            x       y       z     vdW  Elec       q    Type
REMARK                         _______ _______ _______ _____ _____    ______ ____
ROOT
ATOM      1  C   UNL     1      -4.340   3.713 -23.889  0.00  0.00    +0.162 A 
ATOM      2  C   UNL     1      -4.824   3.444 -22.748  0.00  0.00    +0.050 A 
ATOM      3  C   UNL     1      -4.091   2.998 -21.834  0.00  0.00    +0.008 A 
ATOM      4  C   UNL     1      -2.867   2.816 -22.052  0.00  0.00    -0.034 A 
ATOM      5  C   UNL     1      -2.363   3.077 -23.180  0.00  0.00    +0.020 A 
ATOM      6  C   UNL     1      -1.143   2.893 -23.391  0.00  0.00    +0.088 C 
ATOM      7  C   UNL     1       0.231   2.726 -23.750  0.00  0.00    +0.075 C 
ATOM      8  C   UNL     1       1.086   2.223 -22.739  0.00  0.00    +0.133 C 
ATOM      9  N   UNL     1       0.511   1.935 -21.480  0.00  0.00    +0.239 N 
ATOM     10  H   UNL     1       1.081   1.572 -20.717  0.00  0.00    +0.204 HD
ATOM     11  C   UNL     1       1.197   1.488 -20.531  0.00  0.00    +0.191 C 
ATOM     12  C   UNL     1      -0.891   2.179 -21.338  0.00  0.00    +0.096 C 
ATOM     13  C   UNL     1      -0.404   2.446 -22.478  0.00  0.00    -0.007 C 
ATOM     14  C   UNL     1       0.831   2.262 -22.696  0.00  0.00    -0.011 C 
ATOM     15  C   UNL     1       1.318   2.525 -23.823  0.00  0.00    +0.069 C 
ATOM     16  C   UNL     1       0.579   2.976 -24.749  0.00  0.00    +0.026 C 
ATOM     17  C   UNL     1      -0.643   3.160 -24.538  0.00  0.00    +0.117 C 
ATOM     18  O   UNL     1      -1.974   3.614 -25.094  0.00  0.00    -0.455 OA
ATOM     19  C   UNL     1      -2.113   2.361 -21.123  0.00  0.00    +0.094 C 
ATOM     20  C   UNL     1      -3.103   3.527 -24.104  0.00  0.00    +0.174 A 
ENDROOT
BRANCH  15  21
ATOM     21  C   UNL     1       2.544   2.341 -24.034  0.00  0.00    +0.070 C 
ATOM     22  C   UNL     1       3.376   3.226 -23.720  0.00  0.00    +0.042 C 
ATOM     23  C   UNL     1       3.477   1.616 -24.460  0.00  0.00    +0.042 C 
BRANCH  21  24
ATOM     24  O   UNL     1       2.291   1.211 -24.520  0.00  0.00    -0.388 OA
ATOM     25  H   UNL     1       1.849   1.319 -25.376  0.00  0.00    +0.210 HD
ENDBRANCH  21  24
ENDBRANCH  15  21
BRANCH   1  27
ATOM     26  C   UNL     1      -5.229   3.510 -25.863  0.00  0.00    +0.277 C 
ATOM     27  O   UNL     1      -5.079   4.159 -24.800  0.00  0.00    -0.491 OA
ENDBRANCH   1  27
TORSDOF 3
ENDMDL
MODEL 5
REMARK VINA RESULT:    -9.881      1.879      2.787
REMARK INTER + INTRA:          -7.873
REMARK INTER:                 -11.825
REMARK INTRA:                   3.952
REMARK UNBOUND:                 3.741
REMARK  Name = COc1ccc2c3c1OC1=C[C@@H](C(C)(C)O)C=C4[C@H](C2)N(C)CC[C@]143          ZINC000100393821
REMARK  7 active torsions:
REMARK  status: ('A' for Active; 'I' for Inactive)
REMARK    1  A    between atoms: C_1  and  O_2
REMARK    2  A    between atoms: O_2  and  C_3
REMARK    3  A    between atoms: C_12  and  C_13
REMARK    4  A    between atoms: C_13  and  C_14
REMARK    5  A    between atoms: C_13  and  C_15
REMARK    6  A    between atoms: C_13  and  O_16
REMARK    7  A    between atoms: N_21  and  C_22
REMARK                            x       y       z     vdW  Elec       q    Type
REMARK                         _______ _______ _______ _____ _____    ______ ____
ROOT
ATOM      1  C   UNL     1      -2.159   3.244 -23.252  0.00  0.00    +0.162 A 
ATOM      2  C   UNL     1      -2.099   4.416 -23.732  0.00  0.00    +0.050 A 
ATOM      3  C   UNL     1      -0.997   5.004 -23.841  0.00  0.00    +0.008 A 
ATOM      4  C   UNL     1       0.056   4.426 -23.472  0.00  0.00    -0.034 A 
ATOM      5  C   UNL     1       0.020   3.258 -22.992  0.00  0.00    +0.020 A 
ATOM      6  C   UNL     1       1.073   2.688 -22.626  0.00  0.00    +0.088 C 
ATOM      7  C   UNL     1       2.203   1.936 -22.176  0.00  0.00    +0.075 C 
ATOM      8  C   UNL     1       3.462   2.572 -22.286  0.00  0.00    +0.133 C 
ATOM      9  N   UNL     1       3.490   3.879 -22.826  0.00  0.00    +0.239 N 
ATOM     10  H   UNL     1       4.371   4.383 -22.928  0.00  0.00    +0.204 HD
ATOM     11  C   UNL     1       4.564   4.513 -22.958  0.00  0.00    +0.191 C 
ATOM     12  C   UNL     1       2.236   4.445 -23.214  0.00  0.00    +0.096 C 
ATOM     13  C   UNL     1       2.180   3.272 -22.734  0.00  0.00    -0.007 C 
ATOM     14  C   UNL     1       3.242   2.691 -22.363  0.00  0.00    -0.011 C 
ATOM     15  C   UNL     1       3.192   1.530 -21.886  0.00  0.00    +0.069 C 
ATOM     16  C   UNL     1       2.079   0.934 -21.775  0.00  0.00    +0.026 C 
ATOM     17  C   UNL     1       1.025   1.505 -22.141  0.00  0.00    +0.117 C 
ATOM     18  O   UNL     1      -0.477   1.425 -22.291  0.00  0.00    -0.455 OA
ATOM     19  C   UNL     1       1.184   5.020 -23.582  0.00  0.00    +0.094 C 
ATOM     20  C   UNL     1      -1.092   2.664 -22.881  0.00  0.00    +0.174 A 
ENDROOT
BRANCH  15  21
ATOM     21  C   UNL     1       4.249   0.957 -21.519  0.00  0.00    +0.070 C 
ATOM     22  C   UNL     1       5.187   0.786 -22.335  0.00  0.00    +0.042 C 
ATOM     23  C   UNL     1       4.926   0.395 -20.624  0.00  0.00    +0.042 C 
BRANCH  21  24
ATOM     24  O   UNL     1       3.777   0.823 -20.364  0.00  0.00    -0.388 OA
ATOM     25  H   UNL     1       3.466   1.683 -20.041  0.00  0.00    +0.210 HD
ENDBRANCH  21  24
ENDBRANCH  15  21
BRANCH   1  27
ATOM     26  C   UNL     1      -4.324   3.329 -23.070  0.00  0.00    +0.277 C 
ATOM     27  O   UNL     1      -3.265   2.661 -23.145  0.00  0.00    -0.491 OA
ENDBRANCH   1  27
TORSDOF 3
ENDMDL
MODEL 6
REMARK VINA RESULT:    -9.832      2.399      3.640
REMARK INTER + INTRA:          -7.815
REMARK INTER:                 -11.520
REMARK INTRA:                   3.706
REMARK UNBOUND:                 3.741
REMARK  Name = COc1ccc2c3c1OC1=C[C@@H](C(C)(C)O)C=C4[C@H](C2)N(C)CC[C@]143          ZINC000100393821
REMARK  7 active torsions:
REMARK  status: ('A' for Active; 'I' for Inactive)
REMARK    1  A    between atoms: C_1  and  O_2
REMARK    2  A    between atoms: O_2  and  C_3
REMARK    3  A    between atoms: C_12  and  C_13
REMARK    4  A    between atoms: C_13  and  C_14
REMARK    5  A    between atoms: C_13  and  C_15
REMARK    6  A    between atoms: C_13  and  O_16
REMARK    7  A    between atoms: N_21  and  C_22
REMARK                            x       y       z     vdW  Elec       q    Type
REMARK                         _______ _______ _______ _____ _____    ______ ____
ROOT
ATOM      1  C   UNL     1      -2.098   3.987 -23.686  0.00  0.00    +0.162 A 
ATOM      2  C   UNL     1      -2.640   3.081 -22.984  0.00  0.00    +0.050 A 
ATOM      3  C   UNL     1      -1.936   2.280 -22.324  0.00  0.00    +0.008 A 
ATOM      4  C   UNL     1      -0.684   2.377 -22.360  0.00  0.00    -0.034 A 
ATOM      5  C   UNL     1      -0.123   3.271 -23.053  0.00  0.00    +0.020 A 
ATOM      6  C   UNL     1       1.126   3.362 -23.084  0.00  0.00    +0.088 C 
ATOM      7  C   UNL     1       2.537   3.565 -23.200  0.00  0.00    +0.075 C 
ATOM      8  C   UNL     1       3.359   2.677 -22.467  0.00  0.00    +0.133 C 
ATOM      9  N   UNL     1       2.719   1.679 -21.695  0.00  0.00    +0.239 N 
ATOM     10  H   UNL     1       3.264   1.013 -21.148  0.00  0.00    +0.204 HD
ATOM     11  C   UNL     1       3.374   0.852 -21.016  0.00  0.00    +0.191 C 
ATOM     12  C   UNL     1       1.290   1.657 -21.724  0.00  0.00    +0.096 C 
ATOM     13  C   UNL     1       1.835   2.562 -22.425  0.00  0.00    -0.007 C 
ATOM     14  C   UNL     1       3.098   2.658 -22.460  0.00  0.00    -0.011 C 
ATOM     15  C   UNL     1       3.643   3.552 -23.153  0.00  0.00    +0.069 C 
ATOM     16  C   UNL     1       2.934   4.364 -23.821  0.00  0.00    +0.026 C 
ATOM     17  C   UNL     1       1.684   4.272 -23.789  0.00  0.00    +0.117 C 
ATOM     18  O   UNL     1       0.358   4.819 -24.267  0.00  0.00    -0.455 OA
ATOM     19  C   UNL     1       0.040   1.562 -21.690  0.00  0.00    +0.094 C 
ATOM     20  C   UNL     1      -0.832   4.081 -23.719  0.00  0.00    +0.174 A 
ENDROOT
BRANCH  15  21
ATOM     21  C   UNL     1       4.897   3.644 -23.185  0.00  0.00    +0.070 C 
ATOM     22  C   UNL     1       5.478   4.541 -22.527  0.00  0.00    +0.042 C 
ATOM     23  C   UNL     1       6.007   3.231 -23.602  0.00  0.00    +0.042 C 
BRANCH  21  24
ATOM     24  O   UNL     1       4.950   2.661 -23.964  0.00  0.00    -0.388 OA
ATOM     25  H   UNL     1       4.780   2.958 -24.871  0.00  0.00    +0.210 HD
ENDBRANCH  21  24
ENDBRANCH  15  21
BRANCH   1  27
ATOM     26  C   UNL     1      -3.697   4.349 -25.114  0.00  0.00    +0.277 C 
ATOM     27  O   UNL     1      -2.808   4.786 -24.344  0.00  0.00    -0.491 OA
ENDBRANCH   1  27
TORSDOF 3
ENDMDL
MODEL 7
REMARK VINA RESULT:    -9.277      2.346      6.411
REMARK INTER + INTRA:          -7.162
REMARK INTER:                 -10.950
REMARK INTRA:                   3.787
REMARK UNBOUND:                 3.741
REMARK  Name = COc1ccc2c3c1OC1=C[C@@H](C(C)(C)O)C=C4[C@H](C2)N(C)CC[C@]143          ZINC000100393821
REMARK  7 active torsions:
REMARK  status: ('A' for Active; 'I' for Inactive)
REMARK    1  A    between atoms: C_1  and  O_2
REMARK    2  A    between atoms: O_2  and  C_3
REMARK    3  A    between atoms: C_12  and  C_13
REMARK    4  A    between atoms: C_13  and  C_14
REMARK    5  A    between atoms: C_13  and  C_15
REMARK    6  A    between atoms: C_13  and  O_16
REMARK    7  A    between atoms: N_21  and  C_22
REMARK                            x       y       z     vdW  Elec       q    Type
REMARK                         _______ _______ _______ _____ _____    ______ ____
ROOT
ATOM      1  C   UNL     1       4.798   2.866 -22.721  0.00  0.00    +0.162 A 
ATOM      2  C   UNL     1       4.835   2.171 -21.661  0.00  0.00    +0.050 A 
ATOM      3  C   UNL     1       3.777   1.739 -21.145  0.00  0.00    +0.008 A 
ATOM      4  C   UNL     1       2.672   1.996 -21.684  0.00  0.00    -0.034 A 
ATOM      5  C   UNL     1       2.611   2.686 -22.740  0.00  0.00    +0.020 A 
ATOM      6  C   UNL     1       1.505   2.940 -23.272  0.00  0.00    +0.088 C 
ATOM      7  C   UNL     1       0.308   3.294 -23.969  0.00  0.00    +0.075 C 
ATOM      8  C   UNL     1      -0.903   2.820 -23.411  0.00  0.00    +0.133 C 
ATOM      9  N   UNL     1      -0.822   2.048 -22.229  0.00  0.00    +0.239 N 
ATOM     10  H   UNL     1      -1.665   1.682 -21.786  0.00  0.00    +0.204 HD
ATOM     11  C   UNL     1      -1.848   1.590 -21.671  0.00  0.00    +0.191 C 
ATOM     12  C   UNL     1       0.484   1.814 -21.699  0.00  0.00    +0.096 C 
ATOM     13  C   UNL     1       0.443   2.508 -22.759  0.00  0.00    -0.007 C 
ATOM     14  C   UNL     1      -0.673   2.767 -23.301  0.00  0.00    -0.011 C 
ATOM     15  C   UNL     1      -0.719   3.455 -24.350  0.00  0.00    +0.069 C 
ATOM     16  C   UNL     1       0.349   3.894 -24.874  0.00  0.00    +0.026 C 
ATOM     17  C   UNL     1       1.455   3.640 -24.341  0.00  0.00    +0.117 C 
ATOM     18  O   UNL     1       2.957   3.805 -24.392  0.00  0.00    -0.455 OA
ATOM     19  C   UNL     1       1.589   1.558 -21.163  0.00  0.00    +0.094 C 
ATOM     20  C   UNL     1       3.678   3.124 -23.262  0.00  0.00    +0.174 A 
ENDROOT
BRANCH  15  21
ATOM     21  C   UNL     1      -1.828   3.709 -24.884  0.00  0.00    +0.070 C 
ATOM     22  C   UNL     1      -2.649   4.460 -24.303  0.00  0.00    +0.042 C 
ATOM     23  C   UNL     1      -2.634   3.569 -25.837  0.00  0.00    +0.042 C 
BRANCH  21  24
ATOM     24  O   UNL     1      -1.522   2.989 -25.866  0.00  0.00    -0.388 OA
ATOM     25  H   UNL     1      -2.022   3.277 -26.646  0.00  0.00    +0.210 HD
ENDBRANCH  21  24
ENDBRANCH  15  21
BRANCH   1  27
ATOM     26  C   UNL     1       6.918   3.317 -22.560  0.00  0.00    +0.277 C 
ATOM     27  O   UNL     1       5.860   3.297 -23.232  0.00  0.00    -0.491 OA
ENDBRANCH   1  27
TORSDOF 3
ENDMDL
MODEL 8
REMARK VINA RESULT:    -8.564      3.982      7.162
REMARK INTER + INTRA:          -6.325
REMARK INTER:                 -10.000
REMARK INTRA:                   3.675
REMARK UNBOUND:                 3.741
REMARK  Name = COc1ccc2c3c1OC1=C[C@@H](C(C)(C)O)C=C4[C@H](C2)N(C)CC[C@]143          ZINC000100393821
REMARK  7 active torsions:
REMARK  status: ('A' for Active; 'I' for Inactive)
REMARK    1  A    between atoms: C_1  and  O_2
REMARK    2  A    between atoms: O_2  and  C_3
REMARK    3  A    between atoms: C_12  and  C_13
REMARK    4  A    between atoms: C_13  and  C_14
REMARK    5  A    between atoms: C_13  and  C_15
REMARK    6  A    between atoms: C_13  and  O_16
REMARK    7  A    between atoms: N_21  and  C_22
REMARK                            x       y       z     vdW  Elec       q    Type
REMARK                         _______ _______ _______ _____ _____    ______ ____
ROOT
ATOM      1  C   UNL     1       6.061   6.531 -22.147  0.00  0.00    +0.162 A 
ATOM      2  C   UNL     1       7.059   5.768 -22.320  0.00  0.00    +0.050 A 
ATOM      3  C   UNL     1       6.906   4.617 -22.793  0.00  0.00    +0.008 A 
ATOM      4  C   UNL     1       5.754   4.216 -23.095  0.00  0.00    -0.034 A 
ATOM      5  C   UNL     1       4.746   4.959 -22.931  0.00  0.00    +0.020 A 
ATOM      6  C   UNL     1       3.601   4.553 -23.235  0.00  0.00    +0.088 C 
ATOM      7  C   UNL     1       2.249   4.204 -23.543  0.00  0.00    +0.075 C 
ATOM      8  C   UNL     1       2.043   2.910 -24.078  0.00  0.00    +0.133 C 
ATOM      9  N   UNL     1       3.180   2.088 -24.257  0.00  0.00    +0.239 N 
ATOM     10  H   UNL     1       3.088   1.147 -24.639  0.00  0.00    +0.204 HD
ATOM     11  C   UNL     1       3.085   0.929 -24.725  0.00  0.00    +0.191 C 
ATOM     12  C   UNL     1       4.443   2.641 -23.881  0.00  0.00    +0.096 C 
ATOM     13  C   UNL     1       3.442   3.401 -23.708  0.00  0.00    -0.007 C 
ATOM     14  C   UNL     1       2.282   2.995 -24.014  0.00  0.00    -0.011 C 
ATOM     15  C   UNL     1       1.288   3.744 -23.845  0.00  0.00    +0.069 C 
ATOM     16  C   UNL     1       1.440   4.909 -23.368  0.00  0.00    +0.026 C 
ATOM     17  C   UNL     1       2.586   5.314 -23.064  0.00  0.00    +0.117 C 
ATOM     18  O   UNL     1       3.430   6.441 -22.514  0.00  0.00    -0.455 OA
ATOM     19  C   UNL     1       5.592   3.043 -23.578  0.00  0.00    +0.094 C 
ATOM     20  C   UNL     1       4.899   6.121 -22.454  0.00  0.00    +0.174 A 
ENDROOT
BRANCH  15  21
ATOM     21  C   UNL     1       0.138   3.337 -24.150  0.00  0.00    +0.070 C 
ATOM     22  C   UNL     1      -0.383   3.683 -25.238  0.00  0.00    +0.042 C 
ATOM     23  C   UNL     1      -0.888   2.668 -23.873  0.00  0.00    +0.042 C 
BRANCH  21  24
ATOM     24  O   UNL     1       0.075   2.702 -23.069  0.00  0.00    -0.388 OA
ATOM     25  H   UNL     1       0.730   3.056 -22.448  0.00  0.00    +0.210 HD
ENDBRANCH  21  24
ENDBRANCH  15  21
BRANCH   1  27
ATOM     26  C   UNL     1       7.041   7.872 -20.744  0.00  0.00    +0.277 C 
ATOM     27  O   UNL     1       6.220   7.682 -21.674  0.00  0.00    -0.491 OA
ENDBRANCH   1  27
TORSDOF 3
ENDMDL
MODEL 9
REMARK VINA RESULT:    -8.352      3.302      4.610
REMARK INTER + INTRA:          -6.076
REMARK INTER:                  -9.817
REMARK INTRA:                   3.741
REMARK UNBOUND:                 3.741
REMARK  Name = COc1ccc2c3c1OC1=C[C@@H](C(C)(C)O)C=C4[C@H](C2)N(C)CC[C@]143          ZINC000100393821
REMARK  7 active torsions:
REMARK  status: ('A' for Active; 'I' for Inactive)
REMARK    1  A    between atoms: C_1  and  O_2
REMARK    2  A    between atoms: O_2  and  C_3
REMARK    3  A    between atoms: C_12  and  C_13
REMARK    4  A    between atoms: C_13  and  C_14
REMARK    5  A    between atoms: C_13  and  C_15
REMARK    6  A    between atoms: C_13  and  O_16
REMARK    7  A    between atoms: N_21  and  C_22
REMARK                            x       y       z     vdW  Elec       q    Type
REMARK                         _______ _______ _______ _____ _____    ______ ____
ROOT
ATOM      1  C   UNL     1      -0.606   3.027 -24.046  0.00  0.00    +0.162 A 
ATOM      2  C   UNL     1      -1.103   4.168 -23.804  0.00  0.00    +0.050 A 
ATOM      3  C   UNL     1      -0.366   5.124 -23.463  0.00  0.00    +0.008 A 
ATOM      4  C   UNL     1       0.874   4.948 -23.361  0.00  0.00    -0.034 A 
ATOM      5  C   UNL     1       1.390   3.820 -23.597  0.00  0.00    +0.020 A 
ATOM      6  C   UNL     1       2.627   3.651 -23.493  0.00  0.00    +0.088 C 
ATOM      7  C   UNL     1       4.019   3.337 -23.410  0.00  0.00    +0.075 C 
ATOM      8  C   UNL     1       4.877   4.395 -23.027  0.00  0.00    +0.133 C 
ATOM      9  N   UNL     1       4.288   5.654 -22.765  0.00  0.00    +0.239 N 
ATOM     10  H   UNL     1       4.860   6.451 -22.486  0.00  0.00    +0.204 HD
ATOM     11  C   UNL     1       4.977   6.644 -22.421  0.00  0.00    +0.191 C 
ATOM     12  C   UNL     1       2.869   5.746 -22.911  0.00  0.00    +0.096 C 
ATOM     13  C   UNL     1       3.369   4.606 -23.152  0.00  0.00    -0.007 C 
ATOM     14  C   UNL     1       4.619   4.430 -23.049  0.00  0.00    -0.011 C 
ATOM     15  C   UNL     1       5.119   3.303 -23.287  0.00  0.00    +0.069 C 
ATOM     16  C   UNL     1       4.377   2.335 -23.631  0.00  0.00    +0.026 C 
ATOM     17  C   UNL     1       3.139   2.504 -23.735  0.00  0.00    +0.117 C 
ATOM     18  O   UNL     1       1.796   1.890 -24.058  0.00  0.00    -0.455 OA
ATOM     19  C   UNL     1       1.631   5.919 -23.014  0.00  0.00    +0.094 C 
ATOM     20  C   UNL     1       0.647   2.854 -23.941  0.00  0.00    +0.174 A 
ENDROOT
BRANCH  15  21
ATOM     21  C   UNL     1       6.361   3.134 -23.183  0.00  0.00    +0.070 C 
ATOM     22  C   UNL     1       6.900   3.113 -22.049  0.00  0.00    +0.042 C 
ATOM     23  C   UNL     1       7.481   2.950 -23.718  0.00  0.00    +0.042 C 
BRANCH  21  24
ATOM     24  O   UNL     1       6.456   3.059 -24.432  0.00  0.00    -0.388 OA
ATOM     25  H   UNL     1       6.810   3.893 -24.779  0.00  0.00    +0.210 HD
ENDBRANCH  21  24
ENDBRANCH  15  21
BRANCH   1  27
ATOM     26  C   UNL     1      -2.580   2.260 -24.540  0.00  0.00    +0.277 C 
ATOM     27  O   UNL     1      -1.349   2.074 -24.386  0.00  0.00    -0.491 OA
ENDBRANCH   1  27
TORSDOF 3
ENDMDL
