MODEL 1
REMARK VINA RESULT:    -7.092      0.000      0.000
REMARK INTER + INTRA:          -7.782
REMARK INTER:                  -7.712
REMARK INTRA:                  -0.070
REMARK UNBOUND:                -0.069
REMARK  Name = ZINC000001669260
REMARK  2 active torsions:
REMARK  status: ('A' for Active; 'I' for Inactive)
REMARK    1  A    between atoms: O_1  and  C_2
REMARK    2  A    between atoms: C_2  and  C_3
REMARK                            x       y       z     vdW  Elec       q    Type
REMARK                         _______ _______ _______ _____ _____    ______ ____
ROOT
ATOM      1  C   UNL     1      -2.651   3.771 -24.449  0.00  0.00    +0.063 C 
ATOM      2  C   UNL     1      -3.525   4.044 -25.372  0.00  0.00    +0.016 C 
ATOM      3  C   UNL     1      -4.790   4.082 -25.078  0.00  0.00    +0.051 C 
ATOM      4  C   UNL     1      -5.183   3.846 -23.862  0.00  0.00    +0.131 C 
ATOM      5  N   UNL     1      -4.310   3.573 -22.938  0.00  0.00    +0.238 N 
ATOM      6  H   UNL     1      -5.321   3.674 -23.024  0.00  0.00    +0.204 HD
ATOM      7  C   UNL     1      -4.702   3.338 -21.721  0.00  0.00    +0.131 C 
ATOM      8  C   UNL     1      -3.828   3.064 -20.799  0.00  0.00    +0.051 C 
ATOM      9  C   UNL     1      -2.563   3.027 -21.092  0.00  0.00    +0.011 C 
ATOM     10  C   UNL     1      -2.170   3.262 -22.309  0.00  0.00    +0.055 C 
ATOM     11  C   UNL     1      -3.044   3.535 -23.233  0.00  0.00    +0.070 C 
ENDROOT
BRANCH   1  12
ATOM     12  C   UNL     1      -1.385   3.733 -24.743  0.00  0.00    +0.164 C 
BRANCH  12  13
ATOM     13  O   UNL     1      -1.003   3.338 -25.921  0.00  0.00    -0.395 OA
ATOM     14  H   UNL     1      -1.426   2.491 -26.130  0.00  0.00    +0.209 HD
ENDBRANCH  12  13
ENDBRANCH   1  12
TORSDOF 2
ENDMDL
MODEL 2
REMARK VINA RESULT:    -7.065      1.550      2.607
REMARK INTER + INTRA:          -7.754
REMARK INTER:                  -7.689
REMARK INTRA:                  -0.065
REMARK UNBOUND:                -0.069
REMARK  Name = ZINC000001669260
REMARK  2 active torsions:
REMARK  status: ('A' for Active; 'I' for Inactive)
REMARK    1  A    between atoms: O_1  and  C_2
REMARK    2  A    between atoms: C_2  and  C_3
REMARK                            x       y       z     vdW  Elec       q    Type
REMARK                         _______ _______ _______ _____ _____    ______ ____
ROOT
ATOM      1  C   UNL     1      -4.105   3.644 -23.900  0.00  0.00    +0.063 C 
ATOM      2  C   UNL     1      -5.244   3.724 -23.279  0.00  0.00    +0.016 C 
ATOM      3  C   UNL     1      -5.352   3.283 -22.060  0.00  0.00    +0.051 C 
ATOM      4  C   UNL     1      -4.321   2.762 -21.464  0.00  0.00    +0.131 C 
ATOM      5  N   UNL     1      -3.182   2.682 -22.085  0.00  0.00    +0.238 N 
ATOM      6  H   UNL     1      -3.571   2.439 -21.175  0.00  0.00    +0.204 HD
ATOM      7  C   UNL     1      -2.151   2.161 -21.489  0.00  0.00    +0.131 C 
ATOM      8  C   UNL     1      -1.012   2.081 -22.111  0.00  0.00    +0.051 C 
ATOM      9  C   UNL     1      -0.905   2.522 -23.329  0.00  0.00    +0.011 C 
ATOM     10  C   UNL     1      -1.935   3.043 -23.925  0.00  0.00    +0.055 C 
ATOM     11  C   UNL     1      -3.075   3.123 -23.303  0.00  0.00    +0.070 C 
ENDROOT
BRANCH   1  12
ATOM     12  C   UNL     1      -3.998   4.086 -25.119  0.00  0.00    +0.164 C 
BRANCH  12  13
ATOM     13  O   UNL     1      -4.207   5.342 -25.375  0.00  0.00    -0.395 OA
ATOM     14  H   UNL     1      -4.453   5.445 -26.308  0.00  0.00    +0.209 HD
ENDBRANCH  12  13
ENDBRANCH   1  12
TORSDOF 2
ENDMDL
MODEL 3
REMARK VINA RESULT:    -6.931      1.084      2.671
REMARK INTER + INTRA:          -7.608
REMARK INTER:                  -7.540
REMARK INTRA:                  -0.068
REMARK UNBOUND:                -0.069
REMARK  Name = ZINC000001669260
REMARK  2 active torsions:
REMARK  status: ('A' for Active; 'I' for Inactive)
REMARK    1  A    between atoms: O_1  and  C_2
REMARK    2  A    between atoms: C_2  and  C_3
REMARK                            x       y       z     vdW  Elec       q    Type
REMARK                         _______ _______ _______ _____ _____    ______ ____
ROOT
ATOM      1  C   UNL     1      -1.915   3.062 -24.019  0.00  0.00    +0.063 C 
ATOM      2  C   UNL     1      -0.874   2.575 -23.411  0.00  0.00    +0.016 C 
ATOM      3  C   UNL     1      -0.966   2.189 -22.173  0.00  0.00    +0.051 C 
ATOM      4  C   UNL     1      -2.098   2.289 -21.543  0.00  0.00    +0.131 C 
ATOM      5  N   UNL     1      -3.140   2.776 -22.150  0.00  0.00    +0.238 N 
ATOM      6  H   UNL     1      -2.898   2.405 -21.232  0.00  0.00    +0.204 HD
ATOM      7  C   UNL     1      -4.272   2.877 -21.520  0.00  0.00    +0.131 C 
ATOM      8  C   UNL     1      -5.313   3.363 -22.128  0.00  0.00    +0.051 C 
ATOM      9  C   UNL     1      -5.221   3.750 -23.366  0.00  0.00    +0.011 C 
ATOM     10  C   UNL     1      -4.089   3.649 -23.996  0.00  0.00    +0.055 C 
ATOM     11  C   UNL     1      -3.047   3.162 -23.388  0.00  0.00    +0.070 C 
ENDROOT
BRANCH   1  12
ATOM     12  C   UNL     1      -1.823   3.449 -25.257  0.00  0.00    +0.164 C 
BRANCH  12  13
ATOM     13  O   UNL     1      -0.683   3.380 -25.876  0.00  0.00    -0.395 OA
ATOM     14  H   UNL     1      -0.465   4.248 -26.250  0.00  0.00    +0.209 HD
ENDBRANCH  12  13
ENDBRANCH   1  12
TORSDOF 2
ENDMDL
MODEL 4
REMARK VINA RESULT:    -6.802      1.345      2.545
REMARK INTER + INTRA:          -7.467
REMARK INTER:                  -7.415
REMARK INTRA:                  -0.053
REMARK UNBOUND:                -0.069
REMARK  Name = ZINC000001669260
REMARK  2 active torsions:
REMARK  status: ('A' for Active; 'I' for Inactive)
REMARK    1  A    between atoms: O_1  and  C_2
REMARK    2  A    between atoms: C_2  and  C_3
REMARK                            x       y       z     vdW  Elec       q    Type
REMARK                         _______ _______ _______ _____ _____    ______ ____
ROOT
ATOM      1  C   UNL     1      -3.263   3.980 -24.378  0.00  0.00    +0.063 C 
ATOM      2  C   UNL     1      -2.001   3.803 -24.631  0.00  0.00    +0.016 C 
ATOM      3  C   UNL     1      -1.260   3.129 -23.802  0.00  0.00    +0.051 C 
ATOM      4  C   UNL     1      -1.782   2.632 -22.720  0.00  0.00    +0.131 C 
ATOM      5  N   UNL     1      -3.045   2.809 -22.466  0.00  0.00    +0.238 N 
ATOM      6  H   UNL     1      -2.239   2.353 -22.039  0.00  0.00    +0.204 HD
ATOM      7  C   UNL     1      -3.566   2.313 -21.384  0.00  0.00    +0.131 C 
ATOM      8  C   UNL     1      -4.829   2.491 -21.131  0.00  0.00    +0.051 C 
ATOM      9  C   UNL     1      -5.570   3.165 -21.960  0.00  0.00    +0.011 C 
ATOM     10  C   UNL     1      -5.048   3.661 -23.042  0.00  0.00    +0.055 C 
ATOM     11  C   UNL     1      -3.784   3.483 -23.296  0.00  0.00    +0.070 C 
ENDROOT
BRANCH   1  12
ATOM     12  C   UNL     1      -4.004   4.654 -25.207  0.00  0.00    +0.164 C 
BRANCH  12  13
ATOM     13  O   UNL     1      -4.250   4.179 -26.391  0.00  0.00    -0.395 OA
ATOM     14  H   UNL     1      -4.140   4.882 -27.051  0.00  0.00    +0.209 HD
ENDBRANCH  12  13
ENDBRANCH   1  12
TORSDOF 2
ENDMDL
MODEL 5
REMARK VINA RESULT:    -6.771      1.354      3.233
REMARK INTER + INTRA:          -7.434
REMARK INTER:                  -7.363
REMARK INTRA:                  -0.071
REMARK UNBOUND:                -0.069
REMARK  Name = ZINC000001669260
REMARK  2 active torsions:
REMARK  status: ('A' for Active; 'I' for Inactive)
REMARK    1  A    between atoms: O_1  and  C_2
REMARK    2  A    between atoms: C_2  and  C_3
REMARK                            x       y       z     vdW  Elec       q    Type
REMARK                         _______ _______ _______ _____ _____    ______ ____
ROOT
ATOM      1  C   UNL     1      -2.091   2.637 -22.600  0.00  0.00    +0.063 C 
ATOM      2  C   UNL     1      -2.364   2.620 -21.329  0.00  0.00    +0.016 C 
ATOM      3  C   UNL     1      -3.532   3.006 -20.910  0.00  0.00    +0.051 C 
ATOM      4  C   UNL     1      -4.428   3.410 -21.761  0.00  0.00    +0.131 C 
ATOM      5  N   UNL     1      -4.156   3.427 -23.032  0.00  0.00    +0.238 N 
ATOM      6  H   UNL     1      -4.937   3.655 -22.418  0.00  0.00    +0.204 HD
ATOM      7  C   UNL     1      -5.051   3.831 -23.884  0.00  0.00    +0.131 C 
ATOM      8  C   UNL     1      -4.778   3.848 -25.154  0.00  0.00    +0.051 C 
ATOM      9  C   UNL     1      -3.610   3.462 -25.574  0.00  0.00    +0.011 C 
ATOM     10  C   UNL     1      -2.715   3.058 -24.722  0.00  0.00    +0.055 C 
ATOM     11  C   UNL     1      -2.987   3.041 -23.451  0.00  0.00    +0.070 C 
ENDROOT
BRANCH   1  12
ATOM     12  C   UNL     1      -0.923   2.251 -23.019  0.00  0.00    +0.164 C 
BRANCH  12  13
ATOM     13  O   UNL     1      -0.376   1.182 -22.524  0.00  0.00    -0.395 OA
ATOM     14  H   UNL     1       0.319   1.435 -21.896  0.00  0.00    +0.209 HD
ENDBRANCH  12  13
ENDBRANCH   1  12
TORSDOF 2
ENDMDL
MODEL 6
REMARK VINA RESULT:    -6.662      2.027      3.440
REMARK INTER + INTRA:          -7.315
REMARK INTER:                  -7.246
REMARK INTRA:                  -0.070
REMARK UNBOUND:                -0.069
REMARK  Name = ZINC000001669260
REMARK  2 active torsions:
REMARK  status: ('A' for Active; 'I' for Inactive)
REMARK    1  A    between atoms: O_1  and  C_2
REMARK    2  A    between atoms: C_2  and  C_3
REMARK                            x       y       z     vdW  Elec       q    Type
REMARK                         _______ _______ _______ _____ _____    ______ ____
ROOT
ATOM      1  C   UNL     1      -3.583   3.408 -22.069  0.00  0.00    +0.063 C 
ATOM      2  C   UNL     1      -4.875   3.530 -22.139  0.00  0.00    +0.016 C 
ATOM      3  C   UNL     1      -5.450   3.699 -23.292  0.00  0.00    +0.051 C 
ATOM      4  C   UNL     1      -4.734   3.746 -24.375  0.00  0.00    +0.131 C 
ATOM      5  N   UNL     1      -3.441   3.624 -24.306  0.00  0.00    +0.238 N 
ATOM      6  H   UNL     1      -4.156   3.761 -25.021  0.00  0.00    +0.204 HD
ATOM      7  C   UNL     1      -2.725   3.671 -25.390  0.00  0.00    +0.131 C 
ATOM      8  C   UNL     1      -1.433   3.549 -25.320  0.00  0.00    +0.051 C 
ATOM      9  C   UNL     1      -0.857   3.380 -24.167  0.00  0.00    +0.011 C 
ATOM     10  C   UNL     1      -1.574   3.333 -23.083  0.00  0.00    +0.055 C 
ATOM     11  C   UNL     1      -2.867   3.455 -23.153  0.00  0.00    +0.070 C 
ENDROOT
BRANCH   1  12
ATOM     12  C   UNL     1      -3.007   3.238 -20.915  0.00  0.00    +0.164 C 
BRANCH  12  13
ATOM     13  O   UNL     1      -3.210   4.092 -19.957  0.00  0.00    -0.395 OA
ATOM     14  H   UNL     1      -2.577   3.928 -19.239  0.00  0.00    +0.209 HD
ENDBRANCH  12  13
ENDBRANCH   1  12
TORSDOF 2
ENDMDL
MODEL 7
REMARK VINA RESULT:    -6.653      2.255      3.230
REMARK INTER + INTRA:          -7.305
REMARK INTER:                  -7.237
REMARK INTRA:                  -0.068
REMARK UNBOUND:                -0.069
REMARK  Name = ZINC000001669260
REMARK  2 active torsions:
REMARK  status: ('A' for Active; 'I' for Inactive)
REMARK    1  A    between atoms: O_1  and  C_2
REMARK    2  A    between atoms: C_2  and  C_3
REMARK                            x       y       z     vdW  Elec       q    Type
REMARK                         _______ _______ _______ _____ _____    ______ ____
ROOT
ATOM      1  C   UNL     1      -3.913   3.352 -23.055  0.00  0.00    +0.063 C 
ATOM      2  C   UNL     1      -4.269   3.859 -24.198  0.00  0.00    +0.016 C 
ATOM      3  C   UNL     1      -3.408   3.944 -25.168  0.00  0.00    +0.051 C 
ATOM      4  C   UNL     1      -2.192   3.520 -24.996  0.00  0.00    +0.131 C 
ATOM      5  N   UNL     1      -1.835   3.012 -23.854  0.00  0.00    +0.238 N 
ATOM      6  H   UNL     1      -1.418   3.208 -24.763  0.00  0.00    +0.204 HD
ATOM      7  C   UNL     1      -0.618   2.589 -23.682  0.00  0.00    +0.131 C 
ATOM      8  C   UNL     1      -0.262   2.081 -22.539  0.00  0.00    +0.051 C 
ATOM      9  C   UNL     1      -1.123   1.996 -21.569  0.00  0.00    +0.011 C 
ATOM     10  C   UNL     1      -2.340   2.420 -21.741  0.00  0.00    +0.055 C 
ATOM     11  C   UNL     1      -2.696   2.928 -22.884  0.00  0.00    +0.070 C 
ENDROOT
BRANCH   1  12
ATOM     12  C   UNL     1      -4.774   3.267 -22.085  0.00  0.00    +0.164 C 
BRANCH  12  13
ATOM     13  O   UNL     1      -6.009   3.624 -22.279  0.00  0.00    -0.395 OA
ATOM     14  H   UNL     1      -6.113   3.943 -23.190  0.00  0.00    +0.209 HD
ENDBRANCH  12  13
ENDBRANCH   1  12
TORSDOF 2
ENDMDL
MODEL 8
REMARK VINA RESULT:    -6.029      3.791      5.512
REMARK INTER + INTRA:          -6.627
REMARK INTER:                  -6.558
REMARK INTRA:                  -0.069
REMARK UNBOUND:                -0.069
REMARK  Name = ZINC000001669260
REMARK  2 active torsions:
REMARK  status: ('A' for Active; 'I' for Inactive)
REMARK    1  A    between atoms: O_1  and  C_2
REMARK    2  A    between atoms: C_2  and  C_3
REMARK                            x       y       z     vdW  Elec       q    Type
REMARK                         _______ _______ _______ _____ _____    ______ ____
ROOT
ATOM      1  C   UNL     1       1.196   1.765 -21.798  0.00  0.00    +0.063 C 
ATOM      2  C   UNL     1       0.106   1.452 -21.162  0.00  0.00    +0.016 C 
ATOM      3  C   UNL     1      -1.053   1.739 -21.678  0.00  0.00    +0.051 C 
ATOM      4  C   UNL     1      -1.121   2.339 -22.829  0.00  0.00    +0.131 C 
ATOM      5  N   UNL     1      -0.032   2.653 -23.465  0.00  0.00    +0.238 N 
ATOM      6  H   UNL     1      -1.040   2.736 -23.595  0.00  0.00    +0.204 HD
ATOM      7  C   UNL     1      -0.100   3.253 -24.616  0.00  0.00    +0.131 C 
ATOM      8  C   UNL     1       0.990   3.566 -25.251  0.00  0.00    +0.051 C 
ATOM      9  C   UNL     1       2.148   3.279 -24.736  0.00  0.00    +0.011 C 
ATOM     10  C   UNL     1       2.217   2.679 -23.585  0.00  0.00    +0.055 C 
ATOM     11  C   UNL     1       1.126   2.366 -22.949  0.00  0.00    +0.070 C 
ENDROOT
BRANCH   1  12
ATOM     12  C   UNL     1       2.354   1.478 -21.282  0.00  0.00    +0.164 C 
BRANCH  12  13
ATOM     13  O   UNL     1       2.446   1.174 -20.023  0.00  0.00    -0.395 OA
ATOM     14  H   UNL     1       2.033   0.309 -19.868  0.00  0.00    +0.209 HD
ENDBRANCH  12  13
ENDBRANCH   1  12
TORSDOF 2
ENDMDL
MODEL 9
REMARK VINA RESULT:    -5.979      2.306      3.309
REMARK INTER + INTRA:          -6.572
REMARK INTER:                  -6.501
REMARK INTRA:                  -0.070
REMARK UNBOUND:                -0.069
REMARK  Name = ZINC000001669260
REMARK  2 active torsions:
REMARK  status: ('A' for Active; 'I' for Inactive)
REMARK    1  A    between atoms: O_1  and  C_2
REMARK    2  A    between atoms: C_2  and  C_3
REMARK                            x       y       z     vdW  Elec       q    Type
REMARK                         _______ _______ _______ _____ _____    ______ ____
ROOT
ATOM      1  C   UNL     1      -1.485   3.190 -23.985  0.00  0.00    +0.063 C 
ATOM      2  C   UNL     1      -2.730   3.350 -23.648  0.00  0.00    +0.016 C 
ATOM      3  C   UNL     1      -3.151   2.923 -22.494  0.00  0.00    +0.051 C 
ATOM      4  C   UNL     1      -2.327   2.336 -21.678  0.00  0.00    +0.131 C 
ATOM      5  N   UNL     1      -1.081   2.176 -22.014  0.00  0.00    +0.238 N 
ATOM      6  H   UNL     1      -1.690   1.965 -21.224  0.00  0.00    +0.204 HD
ATOM      7  C   UNL     1      -0.257   1.590 -21.197  0.00  0.00    +0.131 C 
ATOM      8  C   UNL     1       0.988   1.431 -21.534  0.00  0.00    +0.051 C 
ATOM      9  C   UNL     1       1.409   1.858 -22.688  0.00  0.00    +0.011 C 
ATOM     10  C   UNL     1       0.585   2.444 -23.504  0.00  0.00    +0.055 C 
ATOM     11  C   UNL     1      -0.661   2.604 -23.167  0.00  0.00    +0.070 C 
ENDROOT
BRANCH   1  12
ATOM     12  C   UNL     1      -1.063   3.617 -25.138  0.00  0.00    +0.164 C 
BRANCH  12  13
ATOM     13  O   UNL     1      -1.685   3.271 -26.225  0.00  0.00    -0.395 OA
ATOM     14  H   UNL     1      -1.085   3.359 -26.983  0.00  0.00    +0.209 HD
ENDBRANCH  12  13
ENDBRANCH   1  12
TORSDOF 2
ENDMDL
