MODEL 1
REMARK VINA RESULT:    -9.677      0.000      0.000
REMARK INTER + INTRA:         -10.976
REMARK INTER:                 -11.214
REMARK INTRA:                   0.238
REMARK UNBOUND:                 1.530
REMARK  Name = ZINC000001575653
REMARK  9 active torsions:
REMARK  status: ('A' for Active; 'I' for Inactive)
REMARK    1  A    between atoms: C_1  and  O_2
REMARK    2  A    between atoms: O_2  and  C_3
REMARK    3  A    between atoms: C_6  and  C_7
REMARK    4  A    between atoms: C_7  and  C_8
REMARK    5  A    between atoms: C_11  and  O_12
REMARK    6  A    between atoms: O_12  and  C_13
REMARK    7  A    between atoms: C_14  and  O_15
REMARK    8  A    between atoms: O_15  and  C_16
REMARK    9  A    between atoms: N_21  and  C_22
REMARK                            x       y       z     vdW  Elec       q    Type
REMARK                         _______ _______ _______ _____ _____    ______ ____
ROOT
ATOM      1  C   UNL     1      -0.903   3.857 -24.092  0.00  0.00    +0.100 C 
ATOM      2  C   UNL     1      -2.113   3.826 -23.619  0.00  0.00    +0.008 A 
ATOM      3  C   UNL     1      -2.324   4.051 -22.357  0.00  0.00    +0.058 A 
ATOM      4  C   UNL     1      -3.534   4.020 -21.883  0.00  0.00    +0.162 A 
ATOM      5  C   UNL     1      -4.535   3.763 -22.673  0.00  0.00    +0.162 A 
ATOM      6  C   UNL     1      -4.324   3.538 -23.936  0.00  0.00    +0.053 A 
ATOM      7  C   UNL     1      -3.113   3.569 -24.409  0.00  0.00    -0.030 A 
ATOM      8  C   UNL     1      -2.903   3.344 -25.672  0.00  0.00    +0.086 C 
ATOM      9  C   UNL     1      -1.693   3.375 -26.145  0.00  0.00    +0.136 C 
ATOM     10  N   UNL     1      -0.693   3.632 -25.355  0.00  0.00    +0.239 N 
ATOM     11  H   UNL     1      -1.324   3.416 -26.126  0.00  0.00    +0.204 HD
ATOM     12  C   UNL     1       0.518   3.663 -25.828  0.00  0.00    +0.191 C 
ENDROOT
BRANCH   5  13
ATOM     13  O   UNL     1      -5.745   3.732 -22.201  0.00  0.00    -0.491 OA
ATOM     14  C   UNL     1      -6.238   2.617 -21.750  0.00  0.00    +0.277 C 
ENDBRANCH   5  13
BRANCH   4  15
ATOM     15  O   UNL     1      -3.745   4.245 -20.621  0.00  0.00    -0.491 OA
ATOM     16  C   UNL     1      -2.937   3.750 -19.729  0.00  0.00    +0.277 C 
ENDBRANCH   4  15
BRANCH   1  17
ATOM     17  C   UNL     1       0.097   4.114 -23.302  0.00  0.00    +0.094 C 
BRANCH  17  21
ATOM     18  C   UNL     1       2.290   1.199 -21.923  0.00  0.00    +0.120 A 
ATOM     19  C   UNL     1       2.855   2.245 -22.450  0.00  0.00    +0.046 A 
ATOM     20  C   UNL     1       2.124   3.216 -22.909  0.00  0.00    +0.007 A 
ATOM     21  C   UNL     1       0.828   3.143 -22.843  0.00  0.00    -0.041 A 
ATOM     22  C   UNL     1       0.263   2.096 -22.316  0.00  0.00    +0.007 A 
ATOM     23  C   UNL     1       0.994   1.125 -21.857  0.00  0.00    +0.046 A 
BRANCH  18  25
ATOM     24  C   UNL     1       4.211   0.472 -20.999  0.00  0.00    +0.277 C 
ATOM     25  O   UNL     1       3.022   0.228 -21.464  0.00  0.00    -0.495 OA
ENDBRANCH  18  25
ENDBRANCH  17  21
ENDBRANCH   1  17
TORSDOF 5
ENDMDL
MODEL 2
REMARK VINA RESULT:    -9.465      2.438      3.773
REMARK INTER + INTRA:         -10.701
REMARK INTER:                 -11.320
REMARK INTRA:                   0.618
REMARK UNBOUND:                 1.530
REMARK  Name = ZINC000001575653
REMARK  9 active torsions:
REMARK  status: ('A' for Active; 'I' for Inactive)
REMARK    1  A    between atoms: C_1  and  O_2
REMARK    2  A    between atoms: O_2  and  C_3
REMARK    3  A    between atoms: C_6  and  C_7
REMARK    4  A    between atoms: C_7  and  C_8
REMARK    5  A    between atoms: C_11  and  O_12
REMARK    6  A    between atoms: O_12  and  C_13
REMARK    7  A    between atoms: C_14  and  O_15
REMARK    8  A    between atoms: O_15  and  C_16
REMARK    9  A    between atoms: N_21  and  C_22
REMARK                            x       y       z     vdW  Elec       q    Type
REMARK                         _______ _______ _______ _____ _____    ______ ____
ROOT
ATOM      1  C   UNL     1       0.252   2.392 -23.023  0.00  0.00    +0.100 C 
ATOM      2  C   UNL     1      -0.998   2.721 -23.158  0.00  0.00    +0.008 A 
ATOM      3  C   UNL     1      -1.381   3.407 -24.193  0.00  0.00    +0.058 A 
ATOM      4  C   UNL     1      -2.632   3.736 -24.329  0.00  0.00    +0.162 A 
ATOM      5  C   UNL     1      -3.499   3.379 -23.429  0.00  0.00    +0.162 A 
ATOM      6  C   UNL     1      -3.116   2.692 -22.393  0.00  0.00    +0.053 A 
ATOM      7  C   UNL     1      -1.865   2.363 -22.258  0.00  0.00    -0.030 A 
ATOM      8  C   UNL     1      -1.482   1.677 -21.223  0.00  0.00    +0.086 C 
ATOM      9  C   UNL     1      -0.232   1.348 -21.088  0.00  0.00    +0.136 C 
ATOM     10  N   UNL     1       0.635   1.706 -21.988  0.00  0.00    +0.239 N 
ATOM     11  H   UNL     1       0.126   1.335 -21.186  0.00  0.00    +0.204 HD
ATOM     12  C   UNL     1       1.886   1.376 -21.853  0.00  0.00    +0.191 C 
ENDROOT
BRANCH   5  13
ATOM     13  O   UNL     1      -4.749   3.707 -23.564  0.00  0.00    -0.491 OA
ATOM     14  C   UNL     1      -5.591   3.470 -22.602  0.00  0.00    +0.277 C 
ENDBRANCH   5  13
BRANCH   4  15
ATOM     15  O   UNL     1      -3.015   4.422 -25.364  0.00  0.00    -0.491 OA
ATOM     16  C   UNL     1      -3.230   3.823 -26.498  0.00  0.00    +0.277 C 
ENDBRANCH   4  15
BRANCH   1  17
ATOM     17  C   UNL     1       1.119   2.749 -23.924  0.00  0.00    +0.094 C 
BRANCH  17  21
ATOM     18  C   UNL     1       4.000   5.206 -22.989  0.00  0.00    +0.120 A 
ATOM     19  C   UNL     1       4.273   3.975 -23.308  0.00  0.00    +0.046 A 
ATOM     20  C   UNL     1       3.312   3.157 -23.619  0.00  0.00    +0.007 A 
ATOM     21  C   UNL     1       2.079   3.568 -23.612  0.00  0.00    -0.041 A 
ATOM     22  C   UNL     1       1.807   4.799 -23.293  0.00  0.00    +0.007 A 
ATOM     23  C   UNL     1       2.767   5.617 -22.981  0.00  0.00    +0.046 A 
BRANCH  18  25
ATOM     24  C   UNL     1       6.140   5.562 -22.386  0.00  0.00    +0.277 C 
ATOM     25  O   UNL     1       4.960   6.024 -22.677  0.00  0.00    -0.495 OA
ENDBRANCH  18  25
ENDBRANCH  17  21
ENDBRANCH   1  17
TORSDOF 5
ENDMDL
MODEL 3
REMARK VINA RESULT:    -8.364      3.065      4.851
REMARK INTER + INTRA:          -9.280
REMARK INTER:                  -9.789
REMARK INTRA:                   0.509
REMARK UNBOUND:                 1.530
REMARK  Name = ZINC000001575653
REMARK  9 active torsions:
REMARK  status: ('A' for Active; 'I' for Inactive)
REMARK    1  A    between atoms: C_1  and  O_2
REMARK    2  A    between atoms: O_2  and  C_3
REMARK    3  A    between atoms: C_6  and  C_7
REMARK    4  A    between atoms: C_7  and  C_8
REMARK    5  A    between atoms: C_11  and  O_12
REMARK    6  A    between atoms: O_12  and  C_13
REMARK    7  A    between atoms: C_14  and  O_15
REMARK    8  A    between atoms: O_15  and  C_16
REMARK    9  A    between atoms: N_21  and  C_22
REMARK                            x       y       z     vdW  Elec       q    Type
REMARK                         _______ _______ _______ _____ _____    ______ ____
ROOT
ATOM      1  C   UNL     1       2.015   2.615 -22.590  0.00  0.00    +0.100 C 
ATOM      2  C   UNL     1       0.718   2.644 -22.651  0.00  0.00    +0.008 A 
ATOM      3  C   UNL     1       0.127   3.306 -23.601  0.00  0.00    +0.058 A 
ATOM      4  C   UNL     1      -1.172   3.335 -23.663  0.00  0.00    +0.162 A 
ATOM      5  C   UNL     1      -1.879   2.702 -22.774  0.00  0.00    +0.162 A 
ATOM      6  C   UNL     1      -1.288   2.040 -21.824  0.00  0.00    +0.053 A 
ATOM      7  C   UNL     1       0.011   2.011 -21.762  0.00  0.00    -0.030 A 
ATOM      8  C   UNL     1       0.602   1.349 -20.812  0.00  0.00    +0.086 C 
ATOM      9  C   UNL     1       1.899   1.321 -20.751  0.00  0.00    +0.136 C 
ATOM     10  N   UNL     1       2.606   1.954 -21.640  0.00  0.00    +0.239 N 
ATOM     11  H   UNL     1       2.245   1.402 -20.862  0.00  0.00    +0.204 HD
ATOM     12  C   UNL     1       3.905   1.924 -21.578  0.00  0.00    +0.191 C 
ENDROOT
BRANCH   5  13
ATOM     13  O   UNL     1      -3.177   2.731 -22.835  0.00  0.00    -0.491 OA
ATOM     14  C   UNL     1      -3.866   3.166 -21.823  0.00  0.00    +0.277 C 
ENDBRANCH   5  13
BRANCH   4  15
ATOM     15  O   UNL     1      -1.763   3.996 -24.613  0.00  0.00    -0.491 OA
ATOM     16  C   UNL     1      -1.783   3.518 -25.823  0.00  0.00    +0.277 C 
ENDBRANCH   4  15
BRANCH   1  17
ATOM     17  C   UNL     1       2.722   3.248 -23.478  0.00  0.00    +0.094 C 
BRANCH  17  21
ATOM     18  C   UNL     1       4.652   6.489 -22.488  0.00  0.00    +0.120 A 
ATOM     19  C   UNL     1       3.356   6.508 -22.581  0.00  0.00    +0.046 A 
ATOM     20  C   UNL     1       2.713   5.427 -22.911  0.00  0.00    +0.007 A 
ATOM     21  C   UNL     1       3.365   4.328 -23.148  0.00  0.00    -0.041 A 
ATOM     22  C   UNL     1       4.663   4.310 -23.055  0.00  0.00    +0.007 A 
ATOM     23  C   UNL     1       5.305   5.390 -22.724  0.00  0.00    +0.046 A 
BRANCH  18  25
ATOM     24  C   UNL     1       4.639   8.650 -21.856  0.00  0.00    +0.277 C 
ATOM     25  O   UNL     1       5.295   7.569 -22.158  0.00  0.00    -0.495 OA
ENDBRANCH  18  25
ENDBRANCH  17  21
ENDBRANCH   1  17
TORSDOF 5
ENDMDL
MODEL 4
REMARK VINA RESULT:    -8.320      1.497      6.537
REMARK INTER + INTRA:          -9.222
REMARK INTER:                 -10.773
REMARK INTRA:                   1.551
REMARK UNBOUND:                 1.530
REMARK  Name = ZINC000001575653
REMARK  9 active torsions:
REMARK  status: ('A' for Active; 'I' for Inactive)
REMARK    1  A    between atoms: C_1  and  O_2
REMARK    2  A    between atoms: O_2  and  C_3
REMARK    3  A    between atoms: C_6  and  C_7
REMARK    4  A    between atoms: C_7  and  C_8
REMARK    5  A    between atoms: C_11  and  O_12
REMARK    6  A    between atoms: O_12  and  C_13
REMARK    7  A    between atoms: C_14  and  O_15
REMARK    8  A    between atoms: O_15  and  C_16
REMARK    9  A    between atoms: N_21  and  C_22
REMARK                            x       y       z     vdW  Elec       q    Type
REMARK                         _______ _______ _______ _____ _____    ______ ____
ROOT
ATOM      1  C   UNL     1       0.493   2.774 -23.704  0.00  0.00    +0.100 C 
ATOM      2  C   UNL     1       1.620   2.753 -23.057  0.00  0.00    +0.008 A 
ATOM      3  C   UNL     1       1.804   1.894 -22.100  0.00  0.00    +0.058 A 
ATOM      4  C   UNL     1       2.932   1.872 -21.453  0.00  0.00    +0.162 A 
ATOM      5  C   UNL     1       3.875   2.710 -21.764  0.00  0.00    +0.162 A 
ATOM      6  C   UNL     1       3.692   3.569 -22.722  0.00  0.00    +0.053 A 
ATOM      7  C   UNL     1       2.564   3.591 -23.369  0.00  0.00    -0.030 A 
ATOM      8  C   UNL     1       2.380   4.451 -24.326  0.00  0.00    +0.086 C 
ATOM      9  C   UNL     1       1.253   4.472 -24.973  0.00  0.00    +0.136 C 
ATOM     10  N   UNL     1       0.309   3.634 -24.661  0.00  0.00    +0.239 N 
ATOM     11  H   UNL     1       0.908   4.360 -25.053  0.00  0.00    +0.204 HD
ATOM     12  C   UNL     1      -0.819   3.655 -25.308  0.00  0.00    +0.191 C 
ENDROOT
BRANCH   5  13
ATOM     13  O   UNL     1       5.003   2.689 -21.118  0.00  0.00    -0.491 OA
ATOM     14  C   UNL     1       6.086   3.131 -21.685  0.00  0.00    +0.277 C 
ENDBRANCH   5  13
BRANCH   4  15
ATOM     15  O   UNL     1       3.115   1.013 -20.495  0.00  0.00    -0.491 OA
ATOM     16  C   UNL     1       4.046   0.110 -20.601  0.00  0.00    +0.277 C 
ENDBRANCH   4  15
BRANCH   1  17
ATOM     17  C   UNL     1      -0.451   1.936 -23.392  0.00  0.00    +0.094 C 
BRANCH  17  21
ATOM     18  C   UNL     1      -3.842   3.252 -21.986  0.00  0.00    +0.120 A 
ATOM     19  C   UNL     1      -2.819   3.116 -21.195  0.00  0.00    +0.046 A 
ATOM     20  C   UNL     1      -1.689   2.678 -21.664  0.00  0.00    +0.007 A 
ATOM     21  C   UNL     1      -1.581   2.375 -22.924  0.00  0.00    -0.041 A 
ATOM     22  C   UNL     1      -2.604   2.511 -23.715  0.00  0.00    +0.007 A 
ATOM     23  C   UNL     1      -3.734   2.949 -23.246  0.00  0.00    +0.046 A 
BRANCH  18  25
ATOM     24  C   UNL     1      -6.067   3.021 -21.725  0.00  0.00    +0.277 C 
ATOM     25  O   UNL     1      -4.972   3.691 -21.517  0.00  0.00    -0.495 OA
ENDBRANCH  18  25
ENDBRANCH  17  21
ENDBRANCH   1  17
TORSDOF 5
ENDMDL
MODEL 5
REMARK VINA RESULT:    -7.936      3.363      6.988
REMARK INTER + INTRA:          -8.726
REMARK INTER:                  -9.546
REMARK INTRA:                   0.820
REMARK UNBOUND:                 1.530
REMARK  Name = ZINC000001575653
REMARK  9 active torsions:
REMARK  status: ('A' for Active; 'I' for Inactive)
REMARK    1  A    between atoms: C_1  and  O_2
REMARK    2  A    between atoms: O_2  and  C_3
REMARK    3  A    between atoms: C_6  and  C_7
REMARK    4  A    between atoms: C_7  and  C_8
REMARK    5  A    between atoms: C_11  and  O_12
REMARK    6  A    between atoms: O_12  and  C_13
REMARK    7  A    between atoms: C_14  and  O_15
REMARK    8  A    between atoms: O_15  and  C_16
REMARK    9  A    between atoms: N_21  and  C_22
REMARK                            x       y       z     vdW  Elec       q    Type
REMARK                         _______ _______ _______ _____ _____    ______ ____
ROOT
ATOM      1  C   UNL     1       2.376   3.964 -24.078  0.00  0.00    +0.100 C 
ATOM      2  C   UNL     1       3.300   4.592 -23.414  0.00  0.00    +0.008 A 
ATOM      3  C   UNL     1       3.051   5.760 -22.901  0.00  0.00    +0.058 A 
ATOM      4  C   UNL     1       3.975   6.390 -22.237  0.00  0.00    +0.162 A 
ATOM      5  C   UNL     1       5.148   5.851 -22.086  0.00  0.00    +0.162 A 
ATOM      6  C   UNL     1       5.398   4.683 -22.600  0.00  0.00    +0.053 A 
ATOM      7  C   UNL     1       4.474   4.053 -23.264  0.00  0.00    -0.030 A 
ATOM      8  C   UNL     1       4.723   2.886 -23.777  0.00  0.00    +0.086 C 
ATOM      9  C   UNL     1       3.799   2.257 -24.441  0.00  0.00    +0.136 C 
ATOM     10  N   UNL     1       2.626   2.796 -24.591  0.00  0.00    +0.239 N 
ATOM     11  H   UNL     1       3.461   2.211 -24.588  0.00  0.00    +0.204 HD
ATOM     12  C   UNL     1       1.702   2.167 -25.255  0.00  0.00    +0.191 C 
ENDROOT
BRANCH   5  13
ATOM     13  O   UNL     1       6.072   6.479 -21.423  0.00  0.00    -0.491 OA
ATOM     14  C   UNL     1       7.316   6.121 -21.543  0.00  0.00    +0.277 C 
ENDBRANCH   5  13
BRANCH   4  15
ATOM     15  O   UNL     1       3.725   7.557 -21.723  0.00  0.00    -0.491 OA
ATOM     16  C   UNL     1       4.279   8.621 -22.228  0.00  0.00    +0.277 C 
ENDBRANCH   4  15
BRANCH   1  17
ATOM     17  C   UNL     1       1.203   4.503 -24.228  0.00  0.00    +0.094 C 
BRANCH  17  21
ATOM     18  C   UNL     1      -1.750   3.419 -21.923  0.00  0.00    +0.120 A 
ATOM     19  C   UNL     1      -1.862   4.478 -22.669  0.00  0.00    +0.046 A 
ATOM     20  C   UNL     1      -0.878   4.839 -23.437  0.00  0.00    +0.007 A 
ATOM     21  C   UNL     1       0.219   4.142 -23.460  0.00  0.00    -0.041 A 
ATOM     22  C   UNL     1       0.331   3.082 -22.714  0.00  0.00    +0.007 A 
ATOM     23  C   UNL     1      -0.653   2.721 -21.946  0.00  0.00    +0.046 A 
BRANCH  18  25
ATOM     24  C   UNL     1      -2.990   3.724 -20.068  0.00  0.00    +0.277 C 
ATOM     25  O   UNL     1      -2.734   3.058 -21.155  0.00  0.00    -0.495 OA
ENDBRANCH  18  25
ENDBRANCH  17  21
ENDBRANCH   1  17
TORSDOF 5
ENDMDL
MODEL 6
REMARK VINA RESULT:    -7.871      3.649      5.730
REMARK INTER + INTRA:          -8.642
REMARK INTER:                  -9.181
REMARK INTRA:                   0.540
REMARK UNBOUND:                 1.530
REMARK  Name = ZINC000001575653
REMARK  9 active torsions:
REMARK  status: ('A' for Active; 'I' for Inactive)
REMARK    1  A    between atoms: C_1  and  O_2
REMARK    2  A    between atoms: O_2  and  C_3
REMARK    3  A    between atoms: C_6  and  C_7
REMARK    4  A    between atoms: C_7  and  C_8
REMARK    5  A    between atoms: C_11  and  O_12
REMARK    6  A    between atoms: O_12  and  C_13
REMARK    7  A    between atoms: C_14  and  O_15
REMARK    8  A    between atoms: O_15  and  C_16
REMARK    9  A    between atoms: N_21  and  C_22
REMARK                            x       y       z     vdW  Elec       q    Type
REMARK                         _______ _______ _______ _____ _____    ______ ____
ROOT
ATOM      1  C   UNL     1       3.678   2.784 -22.788  0.00  0.00    +0.100 C 
ATOM      2  C   UNL     1       2.388   2.645 -22.712  0.00  0.00    +0.008 A 
ATOM      3  C   UNL     1       1.608   3.444 -23.377  0.00  0.00    +0.058 A 
ATOM      4  C   UNL     1       0.318   3.306 -23.301  0.00  0.00    +0.162 A 
ATOM      5  C   UNL     1      -0.193   2.367 -22.560  0.00  0.00    +0.162 A 
ATOM      6  C   UNL     1       0.587   1.568 -21.895  0.00  0.00    +0.053 A 
ATOM      7  C   UNL     1       1.878   1.706 -21.971  0.00  0.00    -0.030 A 
ATOM      8  C   UNL     1       2.658   0.907 -21.306  0.00  0.00    +0.086 C 
ATOM      9  C   UNL     1       3.948   1.046 -21.382  0.00  0.00    +0.136 C 
ATOM     10  N   UNL     1       4.458   1.984 -22.123  0.00  0.00    +0.239 N 
ATOM     11  H   UNL     1       4.264   1.202 -21.499  0.00  0.00    +0.204 HD
ATOM     12  C   UNL     1       5.749   2.123 -22.199  0.00  0.00    +0.191 C 
ENDROOT
BRANCH   5  13
ATOM     13  O   UNL     1      -1.482   2.228 -22.484  0.00  0.00    -0.491 OA
ATOM     14  C   UNL     1      -2.091   2.421 -21.352  0.00  0.00    +0.277 C 
ENDBRANCH   5  13
BRANCH   4  15
ATOM     15  O   UNL     1      -0.462   4.105 -23.966  0.00  0.00    -0.491 OA
ATOM     16  C   UNL     1      -0.693   5.306 -23.522  0.00  0.00    +0.277 C 
ENDBRANCH   4  15
BRANCH   1  17
ATOM     17  C   UNL     1       4.188   3.722 -23.529  0.00  0.00    +0.094 C 
BRANCH  17  21
ATOM     18  C   UNL     1       5.108   7.168 -21.952  0.00  0.00    +0.120 A 
ATOM     19  C   UNL     1       6.036   6.285 -22.170  0.00  0.00    +0.046 A 
ATOM     20  C   UNL     1       5.730   5.137 -22.695  0.00  0.00    +0.007 A 
ATOM     21  C   UNL     1       4.495   4.871 -23.003  0.00  0.00    -0.041 A 
ATOM     22  C   UNL     1       3.567   5.755 -22.785  0.00  0.00    +0.007 A 
ATOM     23  C   UNL     1       3.873   6.903 -22.260  0.00  0.00    +0.046 A 
BRANCH  18  25
ATOM     24  C   UNL     1       5.705   9.326 -22.192  0.00  0.00    +0.277 C 
ATOM     25  O   UNL     1       5.415   8.317 -21.426  0.00  0.00    -0.495 OA
ENDBRANCH  18  25
ENDBRANCH  17  21
ENDBRANCH   1  17
TORSDOF 5
ENDMDL
MODEL 7
REMARK VINA RESULT:    -7.867      3.613      8.248
REMARK INTER + INTRA:          -8.636
REMARK INTER:                  -8.855
REMARK INTRA:                   0.219
REMARK UNBOUND:                 1.530
REMARK  Name = ZINC000001575653
REMARK  9 active torsions:
REMARK  status: ('A' for Active; 'I' for Inactive)
REMARK    1  A    between atoms: C_1  and  O_2
REMARK    2  A    between atoms: O_2  and  C_3
REMARK    3  A    between atoms: C_6  and  C_7
REMARK    4  A    between atoms: C_7  and  C_8
REMARK    5  A    between atoms: C_11  and  O_12
REMARK    6  A    between atoms: O_12  and  C_13
REMARK    7  A    between atoms: C_14  and  O_15
REMARK    8  A    between atoms: O_15  and  C_16
REMARK    9  A    between atoms: N_21  and  C_22
REMARK                            x       y       z     vdW  Elec       q    Type
REMARK                         _______ _______ _______ _____ _____    ______ ____
ROOT
ATOM      1  C   UNL     1       4.045   2.076 -23.008  0.00  0.00    +0.100 C 
ATOM      2  C   UNL     1       4.990   2.803 -22.490  0.00  0.00    +0.008 A 
ATOM      3  C   UNL     1       5.434   3.842 -23.130  0.00  0.00    +0.058 A 
ATOM      4  C   UNL     1       6.380   4.570 -22.612  0.00  0.00    +0.162 A 
ATOM      5  C   UNL     1       6.879   4.257 -21.453  0.00  0.00    +0.162 A 
ATOM      6  C   UNL     1       6.434   3.217 -20.813  0.00  0.00    +0.053 A 
ATOM      7  C   UNL     1       5.489   2.490 -21.331  0.00  0.00    -0.030 A 
ATOM      8  C   UNL     1       5.045   1.450 -20.691  0.00  0.00    +0.086 C 
ATOM      9  C   UNL     1       4.100   0.723 -21.209  0.00  0.00    +0.136 C 
ATOM     10  N   UNL     1       3.600   1.036 -22.367  0.00  0.00    +0.239 N 
ATOM     11  H   UNL     1       3.851   0.627 -21.467  0.00  0.00    +0.204 HD
ATOM     12  C   UNL     1       2.655   0.308 -22.886  0.00  0.00    +0.191 C 
ENDROOT
BRANCH   5  13
ATOM     13  O   UNL     1       7.824   4.984 -20.935  0.00  0.00    -0.491 OA
ATOM     14  C   UNL     1       7.598   5.667 -19.852  0.00  0.00    +0.277 C 
ENDBRANCH   5  13
BRANCH   4  15
ATOM     15  O   UNL     1       6.824   5.610 -23.252  0.00  0.00    -0.491 OA
ATOM     16  C   UNL     1       7.814   5.485 -24.088  0.00  0.00    +0.277 C 
ENDBRANCH   4  15
BRANCH   1  17
ATOM     17  C   UNL     1       3.545   2.389 -24.166  0.00  0.00    +0.094 C 
BRANCH  17  21
ATOM     18  C   UNL     1       0.015   4.031 -24.388  0.00  0.00    +0.120 A 
ATOM     19  C   UNL     1       0.483   3.357 -25.396  0.00  0.00    +0.046 A 
ATOM     20  C   UNL     1       1.659   2.810 -25.322  0.00  0.00    +0.007 A 
ATOM     21  C   UNL     1       2.369   2.936 -24.240  0.00  0.00    -0.041 A 
ATOM     22  C   UNL     1       1.901   3.610 -23.232  0.00  0.00    +0.007 A 
ATOM     23  C   UNL     1       0.724   4.157 -23.305  0.00  0.00    +0.046 A 
BRANCH  18  25
ATOM     24  C   UNL     1      -2.002   4.449 -23.479  0.00  0.00    +0.277 C 
ATOM     25  O   UNL     1      -1.161   4.578 -24.462  0.00  0.00    -0.495 OA
ENDBRANCH  18  25
ENDBRANCH  17  21
ENDBRANCH   1  17
TORSDOF 5
ENDMDL
MODEL 8
REMARK VINA RESULT:    -7.613      3.654      5.871
REMARK INTER + INTRA:          -8.308
REMARK INTER:                  -8.527
REMARK INTRA:                   0.219
REMARK UNBOUND:                 1.530
REMARK  Name = ZINC000001575653
REMARK  9 active torsions:
REMARK  status: ('A' for Active; 'I' for Inactive)
REMARK    1  A    between atoms: C_1  and  O_2
REMARK    2  A    between atoms: O_2  and  C_3
REMARK    3  A    between atoms: C_6  and  C_7
REMARK    4  A    between atoms: C_7  and  C_8
REMARK    5  A    between atoms: C_11  and  O_12
REMARK    6  A    between atoms: O_12  and  C_13
REMARK    7  A    between atoms: C_14  and  O_15
REMARK    8  A    between atoms: O_15  and  C_16
REMARK    9  A    between atoms: N_21  and  C_22
REMARK                            x       y       z     vdW  Elec       q    Type
REMARK                         _______ _______ _______ _____ _____    ______ ____
ROOT
ATOM      1  C   UNL     1       3.728   2.051 -22.814  0.00  0.00    +0.100 C 
ATOM      2  C   UNL     1       2.445   2.257 -22.797  0.00  0.00    +0.008 A 
ATOM      3  C   UNL     1       1.895   3.008 -23.704  0.00  0.00    +0.058 A 
ATOM      4  C   UNL     1       0.611   3.214 -23.687  0.00  0.00    +0.162 A 
ATOM      5  C   UNL     1      -0.122   2.668 -22.764  0.00  0.00    +0.162 A 
ATOM      6  C   UNL     1       0.427   1.917 -21.857  0.00  0.00    +0.053 A 
ATOM      7  C   UNL     1       1.711   1.711 -21.873  0.00  0.00    -0.030 A 
ATOM      8  C   UNL     1       2.261   0.959 -20.966  0.00  0.00    +0.086 C 
ATOM      9  C   UNL     1       3.544   0.753 -20.983  0.00  0.00    +0.136 C 
ATOM     10  N   UNL     1       4.278   1.300 -21.907  0.00  0.00    +0.239 N 
ATOM     11  H   UNL     1       3.890   0.790 -21.114  0.00  0.00    +0.204 HD
ATOM     12  C   UNL     1       5.562   1.094 -21.924  0.00  0.00    +0.191 C 
ENDROOT
BRANCH   5  13
ATOM     13  O   UNL     1      -1.405   2.874 -22.747  0.00  0.00    -0.491 OA
ATOM     14  C   UNL     1      -1.949   3.507 -21.749  0.00  0.00    +0.277 C 
ENDBRANCH   5  13
BRANCH   4  15
ATOM     15  O   UNL     1       0.062   3.966 -24.594  0.00  0.00    -0.491 OA
ATOM     16  C   UNL     1       0.642   4.121 -25.749  0.00  0.00    +0.277 C 
ENDBRANCH   4  15
BRANCH   1  17
ATOM     17  C   UNL     1       4.462   2.597 -23.738  0.00  0.00    +0.094 C 
BRANCH  17  21
ATOM     18  C   UNL     1       6.996   5.411 -22.806  0.00  0.00    +0.120 A 
ATOM     19  C   UNL     1       7.405   4.352 -23.438  0.00  0.00    +0.046 A 
ATOM     20  C   UNL     1       6.560   3.414 -23.749  0.00  0.00    +0.007 A 
ATOM     21  C   UNL     1       5.306   3.535 -23.428  0.00  0.00    -0.041 A 
ATOM     22  C   UNL     1       4.898   4.595 -22.795  0.00  0.00    +0.007 A 
ATOM     23  C   UNL     1       5.742   5.533 -22.485  0.00  0.00    +0.046 A 
BRANCH  18  25
ATOM     24  C   UNL     1       8.197   7.225 -23.387  0.00  0.00    +0.277 C 
ATOM     25  O   UNL     1       7.841   6.349 -22.496  0.00  0.00    -0.495 OA
ENDBRANCH  18  25
ENDBRANCH  17  21
ENDBRANCH   1  17
TORSDOF 5
ENDMDL
MODEL 9
REMARK VINA RESULT:    -7.190      2.155      7.090
REMARK INTER + INTRA:          -7.762
REMARK INTER:                  -9.291
REMARK INTRA:                   1.530
REMARK UNBOUND:                 1.530
REMARK  Name = ZINC000001575653
REMARK  9 active torsions:
REMARK  status: ('A' for Active; 'I' for Inactive)
REMARK    1  A    between atoms: C_1  and  O_2
REMARK    2  A    between atoms: O_2  and  C_3
REMARK    3  A    between atoms: C_6  and  C_7
REMARK    4  A    between atoms: C_7  and  C_8
REMARK    5  A    between atoms: C_11  and  O_12
REMARK    6  A    between atoms: O_12  and  C_13
REMARK    7  A    between atoms: C_14  and  O_15
REMARK    8  A    between atoms: O_15  and  C_16
REMARK    9  A    between atoms: N_21  and  C_22
REMARK                            x       y       z     vdW  Elec       q    Type
REMARK                         _______ _______ _______ _____ _____    ______ ____
ROOT
ATOM      1  C   UNL     1       1.167   3.838 -22.798  0.00  0.00    +0.100 C 
ATOM      2  C   UNL     1       2.397   3.420 -22.741  0.00  0.00    +0.008 A 
ATOM      3  C   UNL     1       2.647   2.176 -22.458  0.00  0.00    +0.058 A 
ATOM      4  C   UNL     1       3.877   1.757 -22.401  0.00  0.00    +0.162 A 
ATOM      5  C   UNL     1       4.856   2.583 -22.626  0.00  0.00    +0.162 A 
ATOM      6  C   UNL     1       4.605   3.826 -22.909  0.00  0.00    +0.053 A 
ATOM      7  C   UNL     1       3.375   4.245 -22.966  0.00  0.00    -0.030 A 
ATOM      8  C   UNL     1       3.125   5.489 -23.248  0.00  0.00    +0.086 C 
ATOM      9  C   UNL     1       1.896   5.907 -23.305  0.00  0.00    +0.136 C 
ATOM     10  N   UNL     1       0.917   5.082 -23.080  0.00  0.00    +0.239 N 
ATOM     11  H   UNL     1       1.526   5.874 -23.285  0.00  0.00    +0.204 HD
ATOM     12  C   UNL     1      -0.313   5.501 -23.137  0.00  0.00    +0.191 C 
ENDROOT
BRANCH   5  13
ATOM     13  O   UNL     1       6.085   2.164 -22.569  0.00  0.00    -0.491 OA
ATOM     14  C   UNL     1       7.062   2.981 -22.828  0.00  0.00    +0.277 C 
ENDBRANCH   5  13
BRANCH   4  15
ATOM     15  O   UNL     1       4.127   0.513 -22.119  0.00  0.00    -0.491 OA
ATOM     16  C   UNL     1       4.102   0.109 -20.882  0.00  0.00    +0.277 C 
ENDBRANCH   4  15
BRANCH   1  17
ATOM     17  C   UNL     1       0.189   3.013 -22.572  0.00  0.00    +0.094 C 
BRANCH  17  21
ATOM     18  C   UNL     1      -2.877   2.921 -24.980  0.00  0.00    +0.120 A 
ATOM     19  C   UNL     1      -3.059   2.856 -23.695  0.00  0.00    +0.046 A 
ATOM     20  C   UNL     1      -2.037   2.886 -22.892  0.00  0.00    +0.007 A 
ATOM     21  C   UNL     1      -0.833   2.982 -23.375  0.00  0.00    -0.041 A 
ATOM     22  C   UNL     1      -0.652   3.047 -24.661  0.00  0.00    +0.007 A 
ATOM     23  C   UNL     1      -1.674   3.016 -25.463  0.00  0.00    +0.046 A 
BRANCH  18  25
ATOM     24  C   UNL     1      -4.947   3.617 -25.530  0.00  0.00    +0.277 C 
ATOM     25  O   UNL     1      -3.899   2.890 -25.783  0.00  0.00    -0.495 OA
ENDBRANCH  18  25
ENDBRANCH  17  21
ENDBRANCH   1  17
TORSDOF 5
ENDMDL
