MODEL 1
REMARK VINA RESULT:   -12.116      0.000      0.000
REMARK INTER + INTRA:          -9.649
REMARK INTER:                 -12.833
REMARK INTRA:                   3.184
REMARK UNBOUND:                 3.175
REMARK  Name = ZINC000004104852
REMARK  4 active torsions:
REMARK  status: ('A' for Active; 'I' for Inactive)
REMARK    1  A    between atoms: C_1  and  C_2
REMARK    2  A    between atoms: C_2  and  C_4
REMARK    3  A    between atoms: C_16  and  C_17
REMARK    4  A    between atoms: C_21  and  C_22
REMARK                            x       y       z     vdW  Elec       q    Type
REMARK                         _______ _______ _______ _____ _____    ______ ____
ROOT
ATOM      1  C   UNL     1       1.840   2.177 -22.964  0.00  0.00    +0.061 C 
ATOM      2  C   UNL     1       2.009   2.708 -24.139  0.00  0.00    +0.012 C 
ATOM      3  C   UNL     1       0.855   3.130 -24.560  0.00  0.00    +0.005 C 
ATOM      4  C   UNL     1      -0.029   2.860 -23.645  0.00  0.00    -0.001 C 
ATOM      5  C   UNL     1      -1.309   3.075 -23.584  0.00  0.00    -0.004 C 
ATOM      6  C   UNL     1      -1.919   3.664 -24.570  0.00  0.00    +0.004 C 
ATOM      7  C   UNL     1      -3.199   3.879 -24.508  0.00  0.00    +0.005 C 
ATOM      8  C   UNL     1      -3.871   3.505 -23.459  0.00  0.00    -0.001 C 
ATOM      9  C   UNL     1      -5.152   3.719 -23.397  0.00  0.00    +0.031 C 
ATOM     10  C   UNL     1      -5.824   3.346 -22.349  0.00  0.00    -0.031 C 
ATOM     11  C   UNL     1      -5.215   2.757 -21.363  0.00  0.00    -0.030 C 
ATOM     12  C   UNL     1      -3.934   2.542 -21.425  0.00  0.00    +0.034 C 
ATOM     13  C   UNL     1      -3.263   2.916 -22.474  0.00  0.00    -0.022 C 
ATOM     14  C   UNL     1      -2.653   2.328 -21.487  0.00  0.00    +0.012 C 
ATOM     15  C   UNL     1      -1.982   2.702 -22.536  0.00  0.00    -0.001 C 
ATOM     16  C   UNL     1      -1.373   2.113 -21.549  0.00  0.00    +0.005 C 
ATOM     17  C   UNL     1      -0.092   1.898 -21.611  0.00  0.00    +0.008 C 
ATOM     18  C   UNL     1       0.579   2.272 -22.659  0.00  0.00    -0.019 C 
ATOM     19  C   UNL     1       1.303   1.696 -21.745  0.00  0.00    +0.012 C 
ENDROOT
BRANCH   1  21
ATOM     20  C   UNL     1       3.067   0.388 -22.360  0.00  0.00    +0.086 C 
ATOM     21  C   UNL     1       2.767   1.646 -22.225  0.00  0.00    +0.134 C 
ATOM     22  O   UNL     1       3.396   2.373 -21.348  0.00  0.00    -0.297 OA
ENDBRANCH   1  21
TORSDOF 1
ENDMDL
MODEL 2
REMARK VINA RESULT:   -11.667      1.097      2.531
REMARK INTER + INTRA:          -9.174
REMARK INTER:                 -12.349
REMARK INTRA:                   3.175
REMARK UNBOUND:                 3.175
REMARK  Name = ZINC000004104852
REMARK  4 active torsions:
REMARK  status: ('A' for Active; 'I' for Inactive)
REMARK    1  A    between atoms: C_1  and  C_2
REMARK    2  A    between atoms: C_2  and  C_4
REMARK    3  A    between atoms: C_16  and  C_17
REMARK    4  A    between atoms: C_21  and  C_22
REMARK                            x       y       z     vdW  Elec       q    Type
REMARK                         _______ _______ _______ _____ _____    ______ ____
ROOT
ATOM      1  C   UNL     1       1.954   2.039 -23.004  0.00  0.00    +0.061 C 
ATOM      2  C   UNL     1       1.906   1.536 -21.806  0.00  0.00    +0.012 C 
ATOM      3  C   UNL     1       0.680   1.621 -21.383  0.00  0.00    +0.005 C 
ATOM      4  C   UNL     1      -0.030   2.176 -22.320  0.00  0.00    -0.001 C 
ATOM      5  C   UNL     1      -1.292   2.480 -22.389  0.00  0.00    -0.004 C 
ATOM      6  C   UNL     1      -2.079   2.221 -21.387  0.00  0.00    +0.004 C 
ATOM      7  C   UNL     1      -3.342   2.524 -21.457  0.00  0.00    +0.005 C 
ATOM      8  C   UNL     1      -3.816   3.087 -22.528  0.00  0.00    -0.001 C 
ATOM      9  C   UNL     1      -5.079   3.391 -22.598  0.00  0.00    +0.031 C 
ATOM     10  C   UNL     1      -5.554   3.953 -23.669  0.00  0.00    -0.031 C 
ATOM     11  C   UNL     1      -4.767   4.212 -24.671  0.00  0.00    -0.030 C 
ATOM     12  C   UNL     1      -3.505   3.908 -24.601  0.00  0.00    +0.034 C 
ATOM     13  C   UNL     1      -3.030   3.346 -23.530  0.00  0.00    -0.022 C 
ATOM     14  C   UNL     1      -2.243   3.604 -24.532  0.00  0.00    +0.012 C 
ATOM     15  C   UNL     1      -1.768   3.042 -23.460  0.00  0.00    -0.001 C 
ATOM     16  C   UNL     1      -0.980   3.301 -24.462  0.00  0.00    +0.005 C 
ATOM     17  C   UNL     1       0.282   2.997 -24.393  0.00  0.00    +0.008 C 
ATOM     18  C   UNL     1       0.756   2.435 -23.321  0.00  0.00    -0.019 C 
ATOM     19  C   UNL     1       1.644   2.640 -24.248  0.00  0.00    +0.012 C 
ENDROOT
BRANCH   1  21
ATOM     20  C   UNL     1       3.816   3.144 -23.623  0.00  0.00    +0.086 C 
ATOM     21  C   UNL     1       3.012   2.131 -23.753  0.00  0.00    +0.134 C 
ATOM     22  O   UNL     1       3.267   1.208 -24.634  0.00  0.00    -0.297 OA
ENDBRANCH   1  21
TORSDOF 1
ENDMDL
MODEL 3
REMARK VINA RESULT:   -10.822      2.155      6.180
REMARK INTER + INTRA:          -8.280
REMARK INTER:                 -11.455
REMARK INTRA:                   3.176
REMARK UNBOUND:                 3.175
REMARK  Name = ZINC000004104852
REMARK  4 active torsions:
REMARK  status: ('A' for Active; 'I' for Inactive)
REMARK    1  A    between atoms: C_1  and  C_2
REMARK    2  A    between atoms: C_2  and  C_4
REMARK    3  A    between atoms: C_16  and  C_17
REMARK    4  A    between atoms: C_21  and  C_22
REMARK                            x       y       z     vdW  Elec       q    Type
REMARK                         _______ _______ _______ _____ _____    ______ ____
ROOT
ATOM      1  C   UNL     1      -3.431   3.501 -24.136  0.00  0.00    +0.061 C 
ATOM      2  C   UNL     1      -3.900   3.147 -22.976  0.00  0.00    +0.012 C 
ATOM      3  C   UNL     1      -2.912   2.687 -22.268  0.00  0.00    +0.005 C 
ATOM      4  C   UNL     1      -1.833   2.756 -22.990  0.00  0.00    -0.001 C 
ATOM      5  C   UNL     1      -0.601   2.425 -22.744  0.00  0.00    -0.004 C 
ATOM      6  C   UNL     1      -0.280   1.922 -21.589  0.00  0.00    +0.004 C 
ATOM      7  C   UNL     1       0.954   1.591 -21.344  0.00  0.00    +0.005 C 
ATOM      8  C   UNL     1       1.866   1.764 -22.254  0.00  0.00    -0.001 C 
ATOM      9  C   UNL     1       3.099   1.434 -22.009  0.00  0.00    +0.031 C 
ATOM     10  C   UNL     1       4.012   1.606 -22.918  0.00  0.00    -0.031 C 
ATOM     11  C   UNL     1       3.691   2.109 -24.073  0.00  0.00    -0.030 C 
ATOM     12  C   UNL     1       2.458   2.440 -24.318  0.00  0.00    +0.034 C 
ATOM     13  C   UNL     1       1.545   2.267 -23.408  0.00  0.00    -0.022 C 
ATOM     14  C   UNL     1       1.224   2.770 -24.563  0.00  0.00    +0.012 C 
ATOM     15  C   UNL     1       0.312   2.598 -23.653  0.00  0.00    -0.001 C 
ATOM     16  C   UNL     1      -0.009   3.101 -24.808  0.00  0.00    +0.005 C 
ATOM     17  C   UNL     1      -1.242   3.431 -25.054  0.00  0.00    +0.008 C 
ATOM     18  C   UNL     1      -2.154   3.259 -24.144  0.00  0.00    -0.019 C 
ATOM     19  C   UNL     1      -2.602   3.768 -25.252  0.00  0.00    +0.012 C 
ENDROOT
BRANCH   1  21
ATOM     20  C   UNL     1      -4.736   3.225 -25.951  0.00  0.00    +0.086 C 
ATOM     21  C   UNL     1      -4.119   4.007 -25.115  0.00  0.00    +0.134 C 
ATOM     22  O   UNL     1      -4.191   5.298 -25.260  0.00  0.00    -0.297 OA
ENDBRANCH   1  21
TORSDOF 1
ENDMDL
MODEL 4
REMARK VINA RESULT:   -10.769      1.818      5.674
REMARK INTER + INTRA:          -8.223
REMARK INTER:                 -11.417
REMARK INTRA:                   3.194
REMARK UNBOUND:                 3.175
REMARK  Name = ZINC000004104852
REMARK  4 active torsions:
REMARK  status: ('A' for Active; 'I' for Inactive)
REMARK    1  A    between atoms: C_1  and  C_2
REMARK    2  A    between atoms: C_2  and  C_4
REMARK    3  A    between atoms: C_16  and  C_17
REMARK    4  A    between atoms: C_21  and  C_22
REMARK                            x       y       z     vdW  Elec       q    Type
REMARK                         _______ _______ _______ _____ _____    ______ ____
ROOT
ATOM      1  C   UNL     1      -3.256   3.475 -22.512  0.00  0.00    +0.061 C 
ATOM      2  C   UNL     1      -3.323   3.987 -23.705  0.00  0.00    +0.012 C 
ATOM      3  C   UNL     1      -2.180   3.793 -24.291  0.00  0.00    +0.005 C 
ATOM      4  C   UNL     1      -1.405   3.161 -23.461  0.00  0.00    -0.001 C 
ATOM      5  C   UNL     1      -0.180   2.739 -23.565  0.00  0.00    -0.004 C 
ATOM      6  C   UNL     1       0.484   2.936 -24.665  0.00  0.00    +0.004 C 
ATOM      7  C   UNL     1       1.710   2.513 -24.768  0.00  0.00    +0.005 C 
ATOM      8  C   UNL     1       2.270   1.895 -23.772  0.00  0.00    -0.001 C 
ATOM      9  C   UNL     1       3.496   1.472 -23.875  0.00  0.00    +0.031 C 
ATOM     10  C   UNL     1       4.057   0.853 -22.879  0.00  0.00    -0.031 C 
ATOM     11  C   UNL     1       3.392   0.657 -21.780  0.00  0.00    -0.030 C 
ATOM     12  C   UNL     1       2.167   1.079 -21.676  0.00  0.00    +0.034 C 
ATOM     13  C   UNL     1       1.606   1.698 -22.672  0.00  0.00    -0.022 C 
ATOM     14  C   UNL     1       0.941   1.501 -21.573  0.00  0.00    +0.012 C 
ATOM     15  C   UNL     1       0.381   2.120 -22.569  0.00  0.00    -0.001 C 
ATOM     16  C   UNL     1      -0.284   1.923 -21.469  0.00  0.00    +0.005 C 
ATOM     17  C   UNL     1      -1.509   2.345 -21.365  0.00  0.00    +0.008 C 
ATOM     18  C   UNL     1      -2.069   2.964 -22.361  0.00  0.00    -0.019 C 
ATOM     19  C   UNL     1      -2.838   2.831 -21.322  0.00  0.00    +0.012 C 
ENDROOT
BRANCH   1  21
ATOM     20  C   UNL     1      -5.200   2.643 -21.738  0.00  0.00    +0.086 C 
ATOM     21  C   UNL     1      -4.206   3.474 -21.626  0.00  0.00    +0.134 C 
ATOM     22  O   UNL     1      -4.163   4.304 -20.625  0.00  0.00    -0.297 OA
ENDBRANCH   1  21
TORSDOF 1
ENDMDL
MODEL 5
REMARK VINA RESULT:    -9.783      2.287      6.560
REMARK INTER + INTRA:          -7.180
REMARK INTER:                 -10.354
REMARK INTRA:                   3.174
REMARK UNBOUND:                 3.175
REMARK  Name = ZINC000004104852
REMARK  4 active torsions:
REMARK  status: ('A' for Active; 'I' for Inactive)
REMARK    1  A    between atoms: C_1  and  C_2
REMARK    2  A    between atoms: C_2  and  C_4
REMARK    3  A    between atoms: C_16  and  C_17
REMARK    4  A    between atoms: C_21  and  C_22
REMARK                            x       y       z     vdW  Elec       q    Type
REMARK                         _______ _______ _______ _____ _____    ______ ____
ROOT
ATOM      1  C   UNL     1      -1.564   3.031 -23.646  0.00  0.00    +0.061 C 
ATOM      2  C   UNL     1      -1.943   2.179 -22.740  0.00  0.00    +0.012 C 
ATOM      3  C   UNL     1      -0.888   1.784 -22.093  0.00  0.00    +0.005 C 
ATOM      4  C   UNL     1       0.144   2.392 -22.599  0.00  0.00    -0.001 C 
ATOM      5  C   UNL     1       1.410   2.343 -22.308  0.00  0.00    -0.004 C 
ATOM      6  C   UNL     1       1.828   1.572 -21.348  0.00  0.00    +0.004 C 
ATOM      7  C   UNL     1       3.095   1.523 -21.059  0.00  0.00    +0.005 C 
ATOM      8  C   UNL     1       3.943   2.245 -21.729  0.00  0.00    -0.001 C 
ATOM      9  C   UNL     1       5.209   2.196 -21.439  0.00  0.00    +0.031 C 
ATOM     10  C   UNL     1       6.058   2.918 -22.109  0.00  0.00    -0.031 C 
ATOM     11  C   UNL     1       5.640   3.689 -23.068  0.00  0.00    -0.030 C 
ATOM     12  C   UNL     1       4.374   3.738 -23.358  0.00  0.00    +0.034 C 
ATOM     13  C   UNL     1       3.525   3.016 -22.688  0.00  0.00    -0.022 C 
ATOM     14  C   UNL     1       3.107   3.787 -23.648  0.00  0.00    +0.012 C 
ATOM     15  C   UNL     1       2.259   3.065 -22.978  0.00  0.00    -0.001 C 
ATOM     16  C   UNL     1       1.841   3.836 -23.938  0.00  0.00    +0.005 C 
ATOM     17  C   UNL     1       0.575   3.885 -24.228  0.00  0.00    +0.008 C 
ATOM     18  C   UNL     1      -0.273   3.163 -23.558  0.00  0.00    -0.019 C 
ATOM     19  C   UNL     1      -0.817   3.889 -24.489  0.00  0.00    +0.012 C 
ENDROOT
BRANCH   1  21
ATOM     20  C   UNL     1      -2.762   3.025 -25.552  0.00  0.00    +0.086 C 
ATOM     21  C   UNL     1      -2.339   3.644 -24.490  0.00  0.00    +0.134 C 
ATOM     22  O   UNL     1      -2.691   4.878 -24.273  0.00  0.00    -0.297 OA
ENDBRANCH   1  21
TORSDOF 1
ENDMDL
MODEL 6
REMARK VINA RESULT:    -9.662      2.157      5.982
REMARK INTER + INTRA:          -7.052
REMARK INTER:                 -10.315
REMARK INTRA:                   3.263
REMARK UNBOUND:                 3.175
REMARK  Name = ZINC000004104852
REMARK  4 active torsions:
REMARK  status: ('A' for Active; 'I' for Inactive)
REMARK    1  A    between atoms: C_1  and  C_2
REMARK    2  A    between atoms: C_2  and  C_4
REMARK    3  A    between atoms: C_16  and  C_17
REMARK    4  A    between atoms: C_21  and  C_22
REMARK                            x       y       z     vdW  Elec       q    Type
REMARK                         _______ _______ _______ _____ _____    ______ ____
ROOT
ATOM      1  C   UNL     1      -2.258   3.899 -23.053  0.00  0.00    +0.061 C 
ATOM      2  C   UNL     1      -1.956   5.086 -23.490  0.00  0.00    +0.012 C 
ATOM      3  C   UNL     1      -0.661   5.179 -23.537  0.00  0.00    +0.005 C 
ATOM      4  C   UNL     1      -0.162   4.049 -23.129  0.00  0.00    -0.001 C 
ATOM      5  C   UNL     1       1.064   3.640 -22.992  0.00  0.00    -0.004 C 
ATOM      6  C   UNL     1       2.052   4.431 -23.291  0.00  0.00    +0.004 C 
ATOM      7  C   UNL     1       3.278   4.021 -23.153  0.00  0.00    +0.005 C 
ATOM      8  C   UNL     1       3.516   2.820 -22.717  0.00  0.00    -0.001 C 
ATOM      9  C   UNL     1       4.742   2.410 -22.579  0.00  0.00    +0.031 C 
ATOM     10  C   UNL     1       4.982   1.209 -22.143  0.00  0.00    -0.031 C 
ATOM     11  C   UNL     1       3.994   0.418 -21.844  0.00  0.00    -0.030 C 
ATOM     12  C   UNL     1       2.768   0.828 -21.981  0.00  0.00    +0.034 C 
ATOM     13  C   UNL     1       2.530   2.029 -22.418  0.00  0.00    -0.022 C 
ATOM     14  C   UNL     1       1.542   1.238 -22.119  0.00  0.00    +0.012 C 
ATOM     15  C   UNL     1       1.304   2.439 -22.555  0.00  0.00    -0.001 C 
ATOM     16  C   UNL     1       0.316   1.648 -22.257  0.00  0.00    +0.005 C 
ATOM     17  C   UNL     1      -0.910   2.057 -22.394  0.00  0.00    +0.008 C 
ATOM     18  C   UNL     1      -1.148   3.258 -22.830  0.00  0.00    -0.019 C 
ATOM     19  C   UNL     1      -2.219   2.569 -22.568  0.00  0.00    +0.012 C 
ENDROOT
BRANCH   1  21
ATOM     20  C   UNL     1      -4.007   3.491 -21.694  0.00  0.00    +0.086 C 
ATOM     21  C   UNL     1      -3.458   3.434 -22.872  0.00  0.00    +0.134 C 
ATOM     22  O   UNL     1      -4.111   2.912 -23.868  0.00  0.00    -0.297 OA
ENDBRANCH   1  21
TORSDOF 1
ENDMDL
MODEL 7
REMARK VINA RESULT:    -9.134      1.767      2.901
REMARK INTER + INTRA:          -6.493
REMARK INTER:                  -9.656
REMARK INTRA:                   3.163
REMARK UNBOUND:                 3.175
REMARK  Name = ZINC000004104852
REMARK  4 active torsions:
REMARK  status: ('A' for Active; 'I' for Inactive)
REMARK    1  A    between atoms: C_1  and  C_2
REMARK    2  A    between atoms: C_2  and  C_4
REMARK    3  A    between atoms: C_16  and  C_17
REMARK    4  A    between atoms: C_21  and  C_22
REMARK                            x       y       z     vdW  Elec       q    Type
REMARK                         _______ _______ _______ _____ _____    ______ ____
ROOT
ATOM      1  C   UNL     1       4.640   3.077 -22.286  0.00  0.00    +0.061 C 
ATOM      2  C   UNL     1       4.847   4.050 -23.123  0.00  0.00    +0.012 C 
ATOM      3  C   UNL     1       3.695   4.434 -23.586  0.00  0.00    +0.005 C 
ATOM      4  C   UNL     1       2.775   3.699 -23.035  0.00  0.00    -0.001 C 
ATOM      5  C   UNL     1       1.482   3.686 -23.162  0.00  0.00    -0.004 C 
ATOM      6  C   UNL     1       0.898   4.525 -23.966  0.00  0.00    +0.004 C 
ATOM      7  C   UNL     1      -0.396   4.511 -24.092  0.00  0.00    +0.005 C 
ATOM      8  C   UNL     1      -1.106   3.659 -23.414  0.00  0.00    -0.001 C 
ATOM      9  C   UNL     1      -2.400   3.645 -23.541  0.00  0.00    +0.031 C 
ATOM     10  C   UNL     1      -3.111   2.793 -22.864  0.00  0.00    -0.031 C 
ATOM     11  C   UNL     1      -2.527   1.954 -22.060  0.00  0.00    -0.030 C 
ATOM     12  C   UNL     1      -1.233   1.968 -21.934  0.00  0.00    +0.034 C 
ATOM     13  C   UNL     1      -0.523   2.820 -22.611  0.00  0.00    -0.022 C 
ATOM     14  C   UNL     1       0.061   1.981 -21.807  0.00  0.00    +0.012 C 
ATOM     15  C   UNL     1       0.771   2.834 -22.485  0.00  0.00    -0.001 C 
ATOM     16  C   UNL     1       1.355   1.995 -21.681  0.00  0.00    +0.005 C 
ATOM     17  C   UNL     1       2.648   2.008 -21.554  0.00  0.00    +0.008 C 
ATOM     18  C   UNL     1       3.358   2.861 -22.232  0.00  0.00    -0.019 C 
ATOM     19  C   UNL     1       4.060   2.079 -21.466  0.00  0.00    +0.012 C 
ENDROOT
BRANCH   1  21
ATOM     20  C   UNL     1       6.142   1.405 -22.152  0.00  0.00    +0.086 C 
ATOM     21  C   UNL     1       5.552   2.434 -21.620  0.00  0.00    +0.134 C 
ATOM     22  O   UNL     1       5.875   2.821 -20.421  0.00  0.00    -0.297 OA
ENDBRANCH   1  21
TORSDOF 1
ENDMDL
