MODEL 1
REMARK VINA RESULT:    -9.310      0.000      0.000
REMARK INTER + INTRA:          -9.854
REMARK INTER:                  -9.854
REMARK INTRA:                   0.000
REMARK UNBOUND:                 0.000
REMARK  Name = ZINC000004104702
REMARK  4 active torsions:
REMARK  status: ('A' for Active; 'I' for Inactive)
REMARK    1  A    between atoms: C_1  and  C_2
REMARK    2  A    between atoms: C_5  and  O_6
REMARK    3  A    between atoms: C_14  and  C_15
REMARK    4  A    between atoms: C_14  and  C_16
REMARK                            x       y       z     vdW  Elec       q    Type
REMARK                         _______ _______ _______ _____ _____    ______ ____
ROOT
ATOM      1  C   UNL     1      -1.795   3.749 -25.437  0.00  0.00    +0.008 C 
ATOM      2  C   UNL     1      -2.929   3.768 -24.802  0.00  0.00    -0.007 C 
ATOM      3  C   UNL     1      -4.049   4.246 -25.254  0.00  0.00    +0.007 C 
ATOM      4  C   UNL     1      -4.956   4.086 -24.336  0.00  0.00    +0.043 C 
ATOM      5  C   UNL     1      -4.394   3.508 -23.316  0.00  0.00    +0.127 C 
ATOM      6  C   UNL     1      -5.033   3.206 -22.224  0.00  0.00    +0.165 C 
ATOM      7  C   UNL     1      -4.575   2.631 -21.150  0.00  0.00    +0.078 C 
ATOM      8  C   UNL     1      -3.368   2.219 -20.904  0.00  0.00    +0.012 C 
ATOM      9  C   UNL     1      -2.318   2.278 -21.670  0.00  0.00    -0.001 C 
ATOM     10  C   UNL     1      -2.218   2.764 -22.871  0.00  0.00    +0.005 C 
ATOM     11  C   UNL     1      -1.176   2.250 -22.289  0.00  0.00    -0.028 C 
ATOM     12  C   UNL     1      -0.441   1.676 -21.382  0.00  0.00    +0.011 C 
ATOM     13  C   UNL     1      -0.288   2.422 -23.222  0.00  0.00    +0.011 C 
ATOM     14  O   UNL     1      -6.294   3.518 -22.203  0.00  0.00    -0.294 OA
ATOM     15  C   UNL     1      -3.142   3.312 -23.603  0.00  0.00    +0.035 C 
ENDROOT
BRANCH   5  16
ATOM     16  O   UNL     1      -5.660   3.799 -23.240  0.00  0.00    -0.381 OA
ATOM     17  H   UNL     1      -5.796   4.475 -22.559  0.00  0.00    +0.211 HD
ENDBRANCH   5  16
TORSDOF 1
ENDMDL
MODEL 2
REMARK VINA RESULT:    -9.101      2.227      3.636
REMARK INTER + INTRA:          -9.633
REMARK INTER:                  -9.633
REMARK INTRA:                   0.000
REMARK UNBOUND:                 0.000
REMARK  Name = ZINC000004104702
REMARK  4 active torsions:
REMARK  status: ('A' for Active; 'I' for Inactive)
REMARK    1  A    between atoms: C_1  and  C_2
REMARK    2  A    between atoms: C_5  and  O_6
REMARK    3  A    between atoms: C_14  and  C_15
REMARK    4  A    between atoms: C_14  and  C_16
REMARK                            x       y       z     vdW  Elec       q    Type
REMARK                         _______ _______ _______ _____ _____    ______ ____
ROOT
ATOM      1  C   UNL     1      -4.884   3.978 -24.778  0.00  0.00    +0.008 C 
ATOM      2  C   UNL     1      -3.626   3.660 -24.847  0.00  0.00    -0.007 C 
ATOM      3  C   UNL     1      -2.869   3.765 -25.899  0.00  0.00    +0.007 C 
ATOM      4  C   UNL     1      -1.678   3.352 -25.580  0.00  0.00    +0.043 C 
ATOM      5  C   UNL     1      -1.700   2.992 -24.331  0.00  0.00    +0.127 C 
ATOM      6  C   UNL     1      -0.660   2.529 -23.701  0.00  0.00    +0.165 C 
ATOM      7  C   UNL     1      -0.569   2.143 -22.463  0.00  0.00    +0.078 C 
ATOM      8  C   UNL     1      -1.493   2.123 -21.549  0.00  0.00    +0.012 C 
ATOM      9  C   UNL     1      -2.738   2.486 -21.648  0.00  0.00    -0.001 C 
ATOM     10  C   UNL     1      -3.365   2.958 -22.684  0.00  0.00    +0.005 C 
ATOM     11  C   UNL     1      -3.997   2.798 -21.560  0.00  0.00    -0.028 C 
ATOM     12  C   UNL     1      -4.218   2.493 -20.314  0.00  0.00    +0.011 C 
ATOM     13  C   UNL     1      -5.179   3.216 -21.902  0.00  0.00    +0.011 C 
ATOM     14  O   UNL     1       0.431   2.441 -24.402  0.00  0.00    -0.294 OA
ATOM     15  C   UNL     1      -2.903   3.183 -23.878  0.00  0.00    +0.035 C 
ENDROOT
BRANCH   5  16
ATOM     16  O   UNL     1      -0.580   2.883 -24.984  0.00  0.00    -0.381 OA
ATOM     17  H   UNL     1      -0.148   3.750 -25.032  0.00  0.00    +0.211 HD
ENDBRANCH   5  16
TORSDOF 1
ENDMDL
MODEL 3
REMARK VINA RESULT:    -9.080      1.044      2.979
REMARK INTER + INTRA:          -9.611
REMARK INTER:                  -9.611
REMARK INTRA:                   0.000
REMARK UNBOUND:                 0.000
REMARK  Name = ZINC000004104702
REMARK  4 active torsions:
REMARK  status: ('A' for Active; 'I' for Inactive)
REMARK    1  A    between atoms: C_1  and  C_2
REMARK    2  A    between atoms: C_5  and  O_6
REMARK    3  A    between atoms: C_14  and  C_15
REMARK    4  A    between atoms: C_14  and  C_16
REMARK                            x       y       z     vdW  Elec       q    Type
REMARK                         _______ _______ _______ _____ _____    ______ ____
ROOT
ATOM      1  C   UNL     1      -3.950   2.552 -20.623  0.00  0.00    +0.008 C 
ATOM      2  C   UNL     1      -4.310   2.997 -21.790  0.00  0.00    -0.007 C 
ATOM      3  C   UNL     1      -5.508   3.371 -22.128  0.00  0.00    +0.007 C 
ATOM      4  C   UNL     1      -5.475   3.751 -23.371  0.00  0.00    +0.043 C 
ATOM      5  C   UNL     1      -4.256   3.611 -23.800  0.00  0.00    +0.127 C 
ATOM      6  C   UNL     1      -3.886   3.905 -25.012  0.00  0.00    +0.165 C 
ATOM      7  C   UNL     1      -2.704   3.806 -25.545  0.00  0.00    +0.078 C 
ATOM      8  C   UNL     1      -1.601   3.388 -24.999  0.00  0.00    +0.012 C 
ATOM      9  C   UNL     1      -1.408   2.966 -23.784  0.00  0.00    -0.001 C 
ATOM     10  C   UNL     1      -2.268   2.858 -22.816  0.00  0.00    +0.005 C 
ATOM     11  C   UNL     1      -1.028   2.519 -22.624  0.00  0.00    -0.028 C 
ATOM     12  C   UNL     1       0.233   2.310 -22.863  0.00  0.00    +0.011 C 
ATOM     13  C   UNL     1      -1.087   2.145 -21.381  0.00  0.00    +0.011 C 
ATOM     14  O   UNL     1      -4.821   4.359 -25.793  0.00  0.00    -0.294 OA
ATOM     15  C   UNL     1      -3.536   3.145 -22.824  0.00  0.00    +0.035 C 
ENDROOT
BRANCH   5  16
ATOM     16  O   UNL     1      -5.152   4.069 -24.625  0.00  0.00    -0.381 OA
ATOM     17  H   UNL     1      -4.759   4.167 -25.506  0.00  0.00    +0.211 HD
ENDBRANCH   5  16
TORSDOF 1
ENDMDL
MODEL 4
REMARK VINA RESULT:    -8.648      2.111      4.453
REMARK INTER + INTRA:          -9.154
REMARK INTER:                  -9.154
REMARK INTRA:                   0.000
REMARK UNBOUND:                 0.000
REMARK  Name = ZINC000004104702
REMARK  4 active torsions:
REMARK  status: ('A' for Active; 'I' for Inactive)
REMARK    1  A    between atoms: C_1  and  C_2
REMARK    2  A    between atoms: C_5  and  O_6
REMARK    3  A    between atoms: C_14  and  C_15
REMARK    4  A    between atoms: C_14  and  C_16
REMARK                            x       y       z     vdW  Elec       q    Type
REMARK                         _______ _______ _______ _____ _____    ______ ____
ROOT
ATOM      1  C   UNL     1      -5.419   3.420 -22.283  0.00  0.00    +0.008 C 
ATOM      2  C   UNL     1      -4.166   3.193 -22.023  0.00  0.00    -0.007 C 
ATOM      3  C   UNL     1      -3.662   2.945 -20.851  0.00  0.00    +0.007 C 
ATOM      4  C   UNL     1      -2.381   2.772 -20.992  0.00  0.00    +0.043 C 
ATOM      5  C   UNL     1      -2.094   2.913 -22.252  0.00  0.00    +0.127 C 
ATOM      6  C   UNL     1      -0.889   2.801 -22.728  0.00  0.00    +0.165 C 
ATOM      7  C   UNL     1      -0.491   2.920 -23.961  0.00  0.00    +0.078 C 
ATOM      8  C   UNL     1      -1.198   3.182 -25.019  0.00  0.00    +0.012 C 
ATOM      9  C   UNL     1      -2.479   3.388 -25.108  0.00  0.00    -0.001 C 
ATOM     10  C   UNL     1      -3.368   3.384 -24.161  0.00  0.00    +0.005 C 
ATOM     11  C   UNL     1      -3.727   3.618 -25.388  0.00  0.00    -0.028 C 
ATOM     12  C   UNL     1      -3.642   3.793 -26.674  0.00  0.00    +0.011 C 
ATOM     13  C   UNL     1      -5.005   3.786 -25.221  0.00  0.00    +0.011 C 
ATOM     14  O   UNL     1       0.038   2.533 -21.859  0.00  0.00    -0.294 OA
ATOM     15  C   UNL     1      -3.197   3.173 -22.890  0.00  0.00    +0.035 C 
ENDROOT
BRANCH   5  16
ATOM     16  O   UNL     1      -1.126   2.646 -21.425  0.00  0.00    -0.381 OA
ATOM     17  H   UNL     1      -1.127   3.297 -20.706  0.00  0.00    +0.211 HD
ENDBRANCH   5  16
TORSDOF 1
ENDMDL
MODEL 5
REMARK VINA RESULT:    -8.636      0.840      3.096
REMARK INTER + INTRA:          -9.141
REMARK INTER:                  -9.141
REMARK INTRA:                   0.000
REMARK UNBOUND:                 0.000
REMARK  Name = ZINC000004104702
REMARK  4 active torsions:
REMARK  status: ('A' for Active; 'I' for Inactive)
REMARK    1  A    between atoms: C_1  and  C_2
REMARK    2  A    between atoms: C_5  and  O_6
REMARK    3  A    between atoms: C_14  and  C_15
REMARK    4  A    between atoms: C_14  and  C_16
REMARK                            x       y       z     vdW  Elec       q    Type
REMARK                         _______ _______ _______ _____ _____    ______ ____
ROOT
ATOM      1  C   UNL     1      -1.258   2.316 -21.128  0.00  0.00    +0.008 C 
ATOM      2  C   UNL     1      -2.452   2.632 -21.532  0.00  0.00    -0.007 C 
ATOM      3  C   UNL     1      -3.543   2.549 -20.831  0.00  0.00    +0.007 C 
ATOM      4  C   UNL     1      -4.532   2.952 -21.573  0.00  0.00    +0.043 C 
ATOM      5  C   UNL     1      -4.050   3.284 -22.734  0.00  0.00    +0.127 C 
ATOM      6  C   UNL     1      -4.783   3.731 -23.711  0.00  0.00    +0.165 C 
ATOM      7  C   UNL     1      -4.411   4.090 -24.905  0.00  0.00    +0.078 C 
ATOM      8  C   UNL     1      -3.215   4.091 -25.415  0.00  0.00    +0.012 C 
ATOM      9  C   UNL     1      -2.096   3.733 -24.858  0.00  0.00    -0.001 C 
ATOM     10  C   UNL     1      -1.896   3.286 -23.655  0.00  0.00    +0.005 C 
ATOM     11  C   UNL     1      -0.894   3.422 -24.472  0.00  0.00    -0.028 C 
ATOM     12  C   UNL     1      -0.230   3.699 -25.555  0.00  0.00    +0.011 C 
ATOM     13  C   UNL     1       0.076   3.015 -23.710  0.00  0.00    +0.011 C 
ATOM     14  O   UNL     1      -6.054   3.832 -23.463  0.00  0.00    -0.294 OA
ATOM     15  C   UNL     1      -2.766   3.086 -22.709  0.00  0.00    +0.035 C 
ENDROOT
BRANCH   5  16
ATOM     16  O   UNL     1      -5.330   3.405 -22.540  0.00  0.00    -0.381 OA
ATOM     17  H   UNL     1      -5.766   2.557 -22.718  0.00  0.00    +0.211 HD
ENDBRANCH   5  16
TORSDOF 1
ENDMDL
MODEL 6
REMARK VINA RESULT:    -8.629      2.094      4.116
REMARK INTER + INTRA:          -9.133
REMARK INTER:                  -9.133
REMARK INTRA:                   0.000
REMARK UNBOUND:                 0.000
REMARK  Name = ZINC000004104702
REMARK  4 active torsions:
REMARK  status: ('A' for Active; 'I' for Inactive)
REMARK    1  A    between atoms: C_1  and  C_2
REMARK    2  A    between atoms: C_5  and  O_6
REMARK    3  A    between atoms: C_14  and  C_15
REMARK    4  A    between atoms: C_14  and  C_16
REMARK                            x       y       z     vdW  Elec       q    Type
REMARK                         _______ _______ _______ _____ _____    ______ ____
ROOT
ATOM      1  C   UNL     1      -1.143   2.260 -21.497  0.00  0.00    +0.008 C 
ATOM      2  C   UNL     1      -1.197   2.571 -22.757  0.00  0.00    -0.007 C 
ATOM      3  C   UNL     1      -0.195   2.582 -23.585  0.00  0.00    +0.007 C 
ATOM      4  C   UNL     1      -0.640   2.943 -24.752  0.00  0.00    +0.043 C 
ATOM      5  C   UNL     1      -1.918   3.156 -24.644  0.00  0.00    +0.127 C 
ATOM      6  C   UNL     1      -2.667   3.532 -25.639  0.00  0.00    +0.165 C 
ATOM      7  C   UNL     1      -3.945   3.772 -25.645  0.00  0.00    +0.078 C 
ATOM      8  C   UNL     1      -4.789   3.694 -24.660  0.00  0.00    +0.012 C 
ATOM      9  C   UNL     1      -4.564   3.357 -23.424  0.00  0.00    -0.001 C 
ATOM     10  C   UNL     1      -3.440   3.015 -22.869  0.00  0.00    +0.005 C 
ATOM     11  C   UNL     1      -4.530   3.049 -22.162  0.00  0.00    -0.028 C 
ATOM     12  C   UNL     1      -5.784   3.209 -21.856  0.00  0.00    +0.011 C 
ATOM     13  C   UNL     1      -4.061   2.686 -21.006  0.00  0.00    +0.011 C 
ATOM     14  O   UNL     1      -2.057   3.690 -26.775  0.00  0.00    -0.294 OA
ATOM     15  C   UNL     1      -2.262   2.926 -23.412  0.00  0.00    +0.035 C 
ENDROOT
BRANCH   5  16
ATOM     16  O   UNL     1      -1.360   3.329 -25.806  0.00  0.00    -0.381 OA
ATOM     17  H   UNL     1      -0.462   3.677 -25.684  0.00  0.00    +0.211 HD
ENDBRANCH   5  16
TORSDOF 1
ENDMDL
MODEL 7
REMARK VINA RESULT:    -7.896      2.971      5.435
REMARK INTER + INTRA:          -8.358
REMARK INTER:                  -8.358
REMARK INTRA:                   0.000
REMARK UNBOUND:                 0.000
REMARK  Name = ZINC000004104702
REMARK  4 active torsions:
REMARK  status: ('A' for Active; 'I' for Inactive)
REMARK    1  A    between atoms: C_1  and  C_2
REMARK    2  A    between atoms: C_5  and  O_6
REMARK    3  A    between atoms: C_14  and  C_15
REMARK    4  A    between atoms: C_14  and  C_16
REMARK                            x       y       z     vdW  Elec       q    Type
REMARK                         _______ _______ _______ _____ _____    ______ ____
ROOT
ATOM      1  C   UNL     1      -2.362   2.041 -21.204  0.00  0.00    +0.008 C 
ATOM      2  C   UNL     1      -1.189   2.008 -21.763  0.00  0.00    -0.007 C 
ATOM      3  C   UNL     1      -0.123   1.455 -21.268  0.00  0.00    +0.007 C 
ATOM      4  C   UNL     1       0.850   1.627 -22.114  0.00  0.00    +0.043 C 
ATOM      5  C   UNL     1       0.384   2.288 -23.131  0.00  0.00    +0.127 C 
ATOM      6  C   UNL     1       1.107   2.624 -24.158  0.00  0.00    +0.165 C 
ATOM      7  C   UNL     1       0.747   3.279 -25.223  0.00  0.00    +0.078 C 
ATOM      8  C   UNL     1      -0.422   3.760 -25.523  0.00  0.00    +0.012 C 
ATOM      9  C   UNL     1      -1.523   3.703 -24.832  0.00  0.00    -0.001 C 
ATOM     10  C   UNL     1      -1.725   3.153 -23.672  0.00  0.00    +0.005 C 
ATOM     11  C   UNL     1      -2.703   3.746 -24.289  0.00  0.00    -0.028 C 
ATOM     12  C   UNL     1      -3.350   4.404 -25.206  0.00  0.00    +0.011 C 
ATOM     13  C   UNL     1      -3.659   3.561 -23.428  0.00  0.00    +0.011 C 
ATOM     14  O   UNL     1       2.353   2.257 -24.115  0.00  0.00    -0.294 OA
ATOM     15  C   UNL     1      -0.876   2.523 -22.915  0.00  0.00    +0.035 C 
ENDROOT
BRANCH   5  16
ATOM     16  O   UNL     1       1.638   1.946 -23.141  0.00  0.00    -0.381 OA
ATOM     17  H   UNL     1       2.156   2.630 -23.593  0.00  0.00    +0.211 HD
ENDBRANCH   5  16
TORSDOF 1
ENDMDL
MODEL 8
REMARK VINA RESULT:    -7.883      3.382      5.163
REMARK INTER + INTRA:          -8.343
REMARK INTER:                  -8.343
REMARK INTRA:                   0.000
REMARK UNBOUND:                 0.000
REMARK  Name = ZINC000004104702
REMARK  4 active torsions:
REMARK  status: ('A' for Active; 'I' for Inactive)
REMARK    1  A    between atoms: C_1  and  C_2
REMARK    2  A    between atoms: C_5  and  O_6
REMARK    3  A    between atoms: C_14  and  C_15
REMARK    4  A    between atoms: C_14  and  C_16
REMARK                            x       y       z     vdW  Elec       q    Type
REMARK                         _______ _______ _______ _____ _____    ______ ____
ROOT
ATOM      1  C   UNL     1       0.901   4.117 -25.502  0.00  0.00    +0.008 C 
ATOM      2  C   UNL     1       1.336   3.430 -24.488  0.00  0.00    -0.007 C 
ATOM      3  C   UNL     1       2.579   3.148 -24.233  0.00  0.00    +0.007 C 
ATOM      4  C   UNL     1       2.617   2.448 -23.138  0.00  0.00    +0.043 C 
ATOM      5  C   UNL     1       1.396   2.298 -22.717  0.00  0.00    +0.127 C 
ATOM      6  C   UNL     1       1.088   1.641 -21.637  0.00  0.00    +0.165 C 
ATOM      7  C   UNL     1      -0.089   1.430 -21.126  0.00  0.00    +0.078 C 
ATOM      8  C   UNL     1      -1.247   1.822 -21.568  0.00  0.00    +0.012 C 
ATOM      9  C   UNL     1      -1.515   2.523 -22.630  0.00  0.00    -0.001 C 
ATOM     10  C   UNL     1      -0.691   3.005 -23.512  0.00  0.00    +0.005 C 
ATOM     11  C   UNL     1      -1.968   3.208 -23.637  0.00  0.00    -0.028 C 
ATOM     12  C   UNL     1      -3.243   3.168 -23.382  0.00  0.00    +0.011 C 
ATOM     13  C   UNL     1      -1.980   3.906 -24.733  0.00  0.00    +0.011 C 
ATOM     14  O   UNL     1       2.087   1.129 -20.984  0.00  0.00    -0.294 OA
ATOM     15  C   UNL     1       0.605   2.905 -23.550  0.00  0.00    +0.035 C 
ENDROOT
BRANCH   5  16
ATOM     16  O   UNL     1       2.358   1.764 -22.023  0.00  0.00    -0.381 OA
ATOM     17  H   UNL     1       3.084   2.401 -21.933  0.00  0.00    +0.211 HD
ENDBRANCH   5  16
TORSDOF 1
ENDMDL
MODEL 9
REMARK VINA RESULT:    -7.721      2.018      3.042
REMARK INTER + INTRA:          -8.172
REMARK INTER:                  -8.172
REMARK INTRA:                   0.000
REMARK UNBOUND:                 0.000
REMARK  Name = ZINC000004104702
REMARK  4 active torsions:
REMARK  status: ('A' for Active; 'I' for Inactive)
REMARK    1  A    between atoms: C_1  and  C_2
REMARK    2  A    between atoms: C_5  and  O_6
REMARK    3  A    between atoms: C_14  and  C_15
REMARK    4  A    between atoms: C_14  and  C_16
REMARK                            x       y       z     vdW  Elec       q    Type
REMARK                         _______ _______ _______ _____ _____    ______ ____
ROOT
ATOM      1  C   UNL     1       1.193   3.550 -25.512  0.00  0.00    +0.008 C 
ATOM      2  C   UNL     1       0.041   3.395 -24.930  0.00  0.00    -0.007 C 
ATOM      3  C   UNL     1      -1.113   3.744 -25.416  0.00  0.00    +0.007 C 
ATOM      4  C   UNL     1      -2.028   3.428 -24.548  0.00  0.00    +0.043 C 
ATOM      5  C   UNL     1      -1.439   2.884 -23.526  0.00  0.00    +0.127 C 
ATOM      6  C   UNL     1      -2.077   2.454 -22.477  0.00  0.00    +0.165 C 
ATOM      7  C   UNL     1      -1.593   1.897 -21.406  0.00  0.00    +0.078 C 
ATOM      8  C   UNL     1      -0.353   1.633 -21.119  0.00  0.00    +0.012 C 
ATOM      9  C   UNL     1       0.710   1.860 -21.832  0.00  0.00    -0.001 C 
ATOM     10  C   UNL     1       0.796   2.407 -23.008  0.00  0.00    +0.005 C 
ATOM     11  C   UNL     1       1.871   2.007 -22.398  0.00  0.00    -0.028 C 
ATOM     12  C   UNL     1       2.636   1.494 -21.479  0.00  0.00    +0.011 C 
ATOM     13  C   UNL     1       2.767   2.332 -23.281  0.00  0.00    +0.011 C 
ATOM     14  O   UNL     1      -3.368   2.600 -22.503  0.00  0.00    -0.294 OA
ATOM     15  C   UNL     1      -0.161   2.863 -23.761  0.00  0.00    +0.035 C 
ENDROOT
BRANCH   5  16
ATOM     16  O   UNL     1      -2.733   3.005 -23.499  0.00  0.00    -0.381 OA
ATOM     17  H   UNL     1      -3.123   2.459 -24.199  0.00  0.00    +0.211 HD
ENDBRANCH   5  16
TORSDOF 1
ENDMDL
