MODEL 1
REMARK VINA RESULT:    -7.887      0.000      0.000
REMARK INTER + INTRA:         -10.164
REMARK INTER:                  -9.528
REMARK INTRA:                  -0.636
REMARK UNBOUND:                -0.664
REMARK  Name = ZINC000014695373
REMARK  5 active torsions:
REMARK  status: ('A' for Active; 'I' for Inactive)
REMARK    1  A    between atoms: C_1  and  N_2
REMARK    2  A    between atoms: C_7  and  C_8
REMARK    3  A    between atoms: C_8  and  C_9
REMARK    4  A    between atoms: C_9  and  O_10
REMARK    5  A    between atoms: C_9  and  C_11
REMARK                            x       y       z     vdW  Elec       q    Type
REMARK                         _______ _______ _______ _____ _____    ______ ____
ROOT
ATOM      1  C   UNL     1      -1.028   3.662 -23.101  0.00  0.00    +0.090 C 
ENDROOT
BRANCH   1   9
ATOM      2  C   UNL     1       1.158   4.325 -24.341  0.00  0.00    +0.190 C 
ATOM      3  N   UNL     1       1.177   3.373 -23.456  0.00  0.00    +0.235 N 
ATOM      4  H   UNL     1       0.749   4.108 -24.022  0.00  0.00    +0.203 HD
ATOM      5  C   UNL     1       2.288   2.753 -23.191  0.00  0.00    +0.131 C 
ATOM      6  C   UNL     1       2.306   1.801 -22.306  0.00  0.00    +0.051 C 
ATOM      7  C   UNL     1       1.213   1.469 -21.686  0.00  0.00    +0.011 C 
ATOM      8  C   UNL     1       0.102   2.089 -21.951  0.00  0.00    +0.055 C 
ATOM      9  C   UNL     1       0.084   3.041 -22.836  0.00  0.00    +0.067 C 
ENDBRANCH   1   9
BRANCH   1  10
ATOM     10  C   UNL     1      -2.010   3.023 -23.664  0.00  0.00    +0.150 C 
BRANCH  10  11
ATOM     11  C   UNL     1      -3.216   3.138 -23.191  0.00  0.00    -0.019 A 
ATOM     12  C   UNL     1      -4.154   3.661 -23.923  0.00  0.00    +0.006 A 
ATOM     13  C   UNL     1      -5.359   3.776 -23.451  0.00  0.00    +0.000 A 
ATOM     14  C   UNL     1      -5.627   3.367 -22.246  0.00  0.00    +0.000 A 
ATOM     15  C   UNL     1      -4.689   2.844 -21.514  0.00  0.00    +0.000 A 
ATOM     16  C   UNL     1      -3.484   2.729 -21.986  0.00  0.00    +0.006 A 
ENDBRANCH  10  11
BRANCH  10  17
ATOM     17  O   UNL     1      -1.788   2.269 -24.699  0.00  0.00    -0.387 OA
ATOM     18  H   UNL     1      -1.189   1.548 -24.452  0.00  0.00    +0.210 HD
ENDBRANCH  10  17
ENDBRANCH   1  10
TORSDOF 4
ENDMDL
MODEL 2
REMARK VINA RESULT:    -7.869      0.676      2.079
REMARK INTER + INTRA:         -10.143
REMARK INTER:                  -9.570
REMARK INTRA:                  -0.574
REMARK UNBOUND:                -0.664
REMARK  Name = ZINC000014695373
REMARK  5 active torsions:
REMARK  status: ('A' for Active; 'I' for Inactive)
REMARK    1  A    between atoms: C_1  and  N_2
REMARK    2  A    between atoms: C_7  and  C_8
REMARK    3  A    between atoms: C_8  and  C_9
REMARK    4  A    between atoms: C_9  and  O_10
REMARK    5  A    between atoms: C_9  and  C_11
REMARK                            x       y       z     vdW  Elec       q    Type
REMARK                         _______ _______ _______ _____ _____    ______ ____
ROOT
ATOM      1  C   UNL     1      -0.961   3.140 -22.401  0.00  0.00    +0.090 C 
ENDROOT
BRANCH   1   9
ATOM      2  C   UNL     1       1.042   1.511 -22.098  0.00  0.00    +0.190 C 
ATOM      3  N   UNL     1       1.212   2.640 -22.719  0.00  0.00    +0.235 N 
ATOM      4  H   UNL     1       0.682   1.927 -22.215  0.00  0.00    +0.203 HD
ATOM      5  C   UNL     1       2.382   2.955 -23.188  0.00  0.00    +0.131 C 
ATOM      6  C   UNL     1       2.551   4.085 -23.809  0.00  0.00    +0.051 C 
ATOM      7  C   UNL     1       1.549   4.899 -23.960  0.00  0.00    +0.011 C 
ATOM      8  C   UNL     1       0.379   4.584 -23.491  0.00  0.00    +0.055 C 
ATOM      9  C   UNL     1       0.210   3.454 -22.871  0.00  0.00    +0.067 C 
ENDBRANCH   1   9
BRANCH   1  10
ATOM     10  C   UNL     1      -1.910   2.777 -23.212  0.00  0.00    +0.150 C 
BRANCH  10  11
ATOM     11  C   UNL     1      -3.153   2.985 -22.893  0.00  0.00    -0.019 A 
ATOM     12  C   UNL     1      -3.591   2.631 -21.721  0.00  0.00    +0.006 A 
ATOM     13  C   UNL     1      -4.833   2.838 -21.401  0.00  0.00    +0.000 A 
ATOM     14  C   UNL     1      -5.638   3.400 -22.253  0.00  0.00    +0.000 A 
ATOM     15  C   UNL     1      -5.201   3.753 -23.425  0.00  0.00    +0.000 A 
ATOM     16  C   UNL     1      -3.958   3.546 -23.745  0.00  0.00    +0.006 A 
ENDBRANCH  10  11
BRANCH  10  17
ATOM     17  O   UNL     1      -1.617   2.206 -24.343  0.00  0.00    -0.387 OA
ATOM     18  H   UNL     1      -1.221   2.858 -24.941  0.00  0.00    +0.210 HD
ENDBRANCH  10  17
ENDBRANCH   1  10
TORSDOF 4
ENDMDL
MODEL 3
REMARK VINA RESULT:    -7.819      1.664      5.465
REMARK INTER + INTRA:         -10.083
REMARK INTER:                  -9.400
REMARK INTRA:                  -0.683
REMARK UNBOUND:                -0.664
REMARK  Name = ZINC000014695373
REMARK  5 active torsions:
REMARK  status: ('A' for Active; 'I' for Inactive)
REMARK    1  A    between atoms: C_1  and  N_2
REMARK    2  A    between atoms: C_7  and  C_8
REMARK    3  A    between atoms: C_8  and  C_9
REMARK    4  A    between atoms: C_9  and  O_10
REMARK    5  A    between atoms: C_9  and  C_11
REMARK                            x       y       z     vdW  Elec       q    Type
REMARK                         _______ _______ _______ _____ _____    ______ ____
ROOT
ATOM      1  C   UNL     1      -1.669   4.091 -23.503  0.00  0.00    +0.090 C 
ENDROOT
BRANCH   1   9
ATOM      2  C   UNL     1      -3.984   3.826 -24.657  0.00  0.00    +0.190 C 
ATOM      3  N   UNL     1      -3.875   3.655 -23.373  0.00  0.00    +0.235 N 
ATOM      4  H   UNL     1      -3.538   3.859 -24.315  0.00  0.00    +0.203 HD
ATOM      5  C   UNL     1      -4.922   3.351 -22.666  0.00  0.00    +0.131 C 
ATOM      6  C   UNL     1      -4.812   3.181 -21.382  0.00  0.00    +0.051 C 
ATOM      7  C   UNL     1      -3.655   3.313 -20.805  0.00  0.00    +0.011 C 
ATOM      8  C   UNL     1      -2.608   3.617 -21.512  0.00  0.00    +0.055 C 
ATOM      9  C   UNL     1      -2.718   3.787 -22.796  0.00  0.00    +0.067 C 
ENDBRANCH   1   9
BRANCH   1  10
ATOM     10  C   UNL     1      -0.713   3.224 -23.653  0.00  0.00    +0.150 C 
BRANCH  10  11
ATOM     11  C   UNL     1       0.524   3.580 -23.467  0.00  0.00    -0.019 A 
ATOM     12  C   UNL     1       1.395   2.711 -23.048  0.00  0.00    +0.006 A 
ATOM     13  C   UNL     1       2.630   3.067 -22.861  0.00  0.00    +0.000 A 
ATOM     14  C   UNL     1       2.995   4.293 -23.094  0.00  0.00    +0.000 A 
ATOM     15  C   UNL     1       2.125   5.162 -23.513  0.00  0.00    +0.000 A 
ATOM     16  C   UNL     1       0.889   4.806 -23.699  0.00  0.00    +0.006 A 
ENDBRANCH  10  11
BRANCH  10  17
ATOM     17  O   UNL     1      -0.992   1.999 -23.989  0.00  0.00    -0.387 OA
ATOM     18  H   UNL     1      -0.346   1.688 -24.642  0.00  0.00    +0.210 HD
ENDBRANCH  10  17
ENDBRANCH   1  10
TORSDOF 4
ENDMDL
MODEL 4
REMARK VINA RESULT:    -7.760      1.635      5.760
REMARK INTER + INTRA:         -10.012
REMARK INTER:                  -9.431
REMARK INTRA:                  -0.581
REMARK UNBOUND:                -0.664
REMARK  Name = ZINC000014695373
REMARK  5 active torsions:
REMARK  status: ('A' for Active; 'I' for Inactive)
REMARK    1  A    between atoms: C_1  and  N_2
REMARK    2  A    between atoms: C_7  and  C_8
REMARK    3  A    between atoms: C_8  and  C_9
REMARK    4  A    between atoms: C_9  and  O_10
REMARK    5  A    between atoms: C_9  and  C_11
REMARK                            x       y       z     vdW  Elec       q    Type
REMARK                         _______ _______ _______ _____ _____    ______ ____
ROOT
ATOM      1  C   UNL     1      -1.576   3.756 -22.671  0.00  0.00    +0.090 C 
ENDROOT
BRANCH   1   9
ATOM      2  C   UNL     1      -3.721   2.912 -21.468  0.00  0.00    +0.190 C 
ATOM      3  N   UNL     1      -3.808   3.458 -22.645  0.00  0.00    +0.235 N 
ATOM      4  H   UNL     1      -3.326   3.124 -21.809  0.00  0.00    +0.203 HD
ATOM      5  C   UNL     1      -4.967   3.582 -23.220  0.00  0.00    +0.131 C 
ATOM      6  C   UNL     1      -5.053   4.128 -24.397  0.00  0.00    +0.051 C 
ATOM      7  C   UNL     1      -3.981   4.550 -24.998  0.00  0.00    +0.011 C 
ATOM      8  C   UNL     1      -2.822   4.426 -24.423  0.00  0.00    +0.055 C 
ATOM      9  C   UNL     1      -2.736   3.880 -23.246  0.00  0.00    +0.067 C 
ENDBRANCH   1   9
BRANCH   1  10
ATOM     10  C   UNL     1      -0.661   3.005 -23.208  0.00  0.00    +0.150 C 
BRANCH  10  11
ATOM     11  C   UNL     1       0.581   3.392 -23.206  0.00  0.00    -0.019 A 
ATOM     12  C   UNL     1       1.515   2.572 -22.825  0.00  0.00    +0.006 A 
ATOM     13  C   UNL     1       2.756   2.957 -22.823  0.00  0.00    +0.000 A 
ATOM     14  C   UNL     1       3.063   4.163 -23.201  0.00  0.00    +0.000 A 
ATOM     15  C   UNL     1       2.128   4.983 -23.581  0.00  0.00    +0.000 A 
ATOM     16  C   UNL     1       0.887   4.597 -23.584  0.00  0.00    +0.006 A 
ENDBRANCH  10  11
BRANCH  10  17
ATOM     17  O   UNL     1      -0.987   1.869 -23.748  0.00  0.00    -0.387 OA
ATOM     18  H   UNL     1      -0.891   1.160 -23.093  0.00  0.00    +0.210 HD
ENDBRANCH  10  17
ENDBRANCH   1  10
TORSDOF 4
ENDMDL
MODEL 5
REMARK VINA RESULT:    -7.107      1.474      2.058
REMARK INTER + INTRA:          -9.225
REMARK INTER:                  -8.915
REMARK INTRA:                  -0.310
REMARK UNBOUND:                -0.664
REMARK  Name = ZINC000014695373
REMARK  5 active torsions:
REMARK  status: ('A' for Active; 'I' for Inactive)
REMARK    1  A    between atoms: C_1  and  N_2
REMARK    2  A    between atoms: C_7  and  C_8
REMARK    3  A    between atoms: C_8  and  C_9
REMARK    4  A    between atoms: C_9  and  O_10
REMARK    5  A    between atoms: C_9  and  C_11
REMARK                            x       y       z     vdW  Elec       q    Type
REMARK                         _______ _______ _______ _____ _____    ______ ____
ROOT
ATOM      1  C   UNL     1      -1.825   3.683 -22.006  0.00  0.00    +0.090 C 
ENDROOT
BRANCH   1   9
ATOM      2  C   UNL     1      -0.036   4.894 -23.452  0.00  0.00    +0.190 C 
ATOM      3  N   UNL     1       0.226   3.731 -22.933  0.00  0.00    +0.235 N 
ATOM      4  H   UNL     1      -0.347   4.552 -23.129  0.00  0.00    +0.203 HD
ATOM      5  C   UNL     1       1.382   3.173 -23.137  0.00  0.00    +0.131 C 
ATOM      6  C   UNL     1       1.643   2.010 -22.618  0.00  0.00    +0.051 C 
ATOM      7  C   UNL     1       0.748   1.405 -21.895  0.00  0.00    +0.011 C 
ATOM      8  C   UNL     1      -0.407   1.962 -21.691  0.00  0.00    +0.055 C 
ATOM      9  C   UNL     1      -0.668   3.125 -22.210  0.00  0.00    +0.067 C 
ENDBRANCH   1   9
BRANCH   1  10
ATOM     10  C   UNL     1      -2.917   3.047 -22.311  0.00  0.00    +0.150 C 
BRANCH  10  11
ATOM     11  C   UNL     1      -3.453   3.202 -23.486  0.00  0.00    -0.019 A 
ATOM     12  C   UNL     1      -4.618   3.768 -23.598  0.00  0.00    +0.006 A 
ATOM     13  C   UNL     1      -5.154   3.924 -24.772  0.00  0.00    +0.000 A 
ATOM     14  C   UNL     1      -4.526   3.513 -25.833  0.00  0.00    +0.000 A 
ATOM     15  C   UNL     1      -3.361   2.948 -25.720  0.00  0.00    +0.000 A 
ATOM     16  C   UNL     1      -2.824   2.792 -24.547  0.00  0.00    +0.006 A 
ENDBRANCH  10  11
BRANCH  10  17
ATOM     17  O   UNL     1      -3.473   2.255 -21.443  0.00  0.00    -0.387 OA
ATOM     18  H   UNL     1      -4.409   2.137 -21.666  0.00  0.00    +0.210 HD
ENDBRANCH  10  17
ENDBRANCH   1  10
TORSDOF 4
ENDMDL
MODEL 6
REMARK VINA RESULT:    -6.827      1.996      3.476
REMARK INTER + INTRA:          -8.888
REMARK INTER:                  -8.315
REMARK INTRA:                  -0.573
REMARK UNBOUND:                -0.664
REMARK  Name = ZINC000014695373
REMARK  5 active torsions:
REMARK  status: ('A' for Active; 'I' for Inactive)
REMARK    1  A    between atoms: C_1  and  N_2
REMARK    2  A    between atoms: C_7  and  C_8
REMARK    3  A    between atoms: C_8  and  C_9
REMARK    4  A    between atoms: C_9  and  O_10
REMARK    5  A    between atoms: C_9  and  C_11
REMARK                            x       y       z     vdW  Elec       q    Type
REMARK                         _______ _______ _______ _____ _____    ______ ____
ROOT
ATOM      1  C   UNL     1       1.733   2.140 -22.384  0.00  0.00    +0.090 C 
ENDROOT
BRANCH   1   9
ATOM      2  C   UNL     1       3.937   0.761 -22.371  0.00  0.00    +0.190 C 
ATOM      3  N   UNL     1       3.966   2.030 -22.653  0.00  0.00    +0.235 N 
ATOM      4  H   UNL     1       3.525   1.145 -22.401  0.00  0.00    +0.203 HD
ATOM      5  C   UNL     1       5.096   2.610 -22.929  0.00  0.00    +0.131 C 
ATOM      6  C   UNL     1       5.125   3.878 -23.210  0.00  0.00    +0.051 C 
ATOM      7  C   UNL     1       4.023   4.568 -23.217  0.00  0.00    +0.011 C 
ATOM      8  C   UNL     1       2.892   3.988 -22.941  0.00  0.00    +0.055 C 
ATOM      9  C   UNL     1       2.864   2.720 -22.660  0.00  0.00    +0.067 C 
ENDBRANCH   1   9
BRANCH   1  10
ATOM     10  C   UNL     1       0.707   2.313 -23.164  0.00  0.00    +0.150 C 
BRANCH  10  11
ATOM     11  C   UNL     1      -0.401   2.794 -22.683  0.00  0.00    -0.019 A 
ATOM     12  C   UNL     1      -0.944   2.251 -21.634  0.00  0.00    +0.006 A 
ATOM     13  C   UNL     1      -2.051   2.731 -21.153  0.00  0.00    +0.000 A 
ATOM     14  C   UNL     1      -2.617   3.754 -21.721  0.00  0.00    +0.000 A 
ATOM     15  C   UNL     1      -2.074   4.297 -22.771  0.00  0.00    +0.000 A 
ATOM     16  C   UNL     1      -0.966   3.817 -23.251  0.00  0.00    +0.006 A 
ENDBRANCH  10  11
BRANCH  10  17
ATOM     17  O   UNL     1       0.789   2.005 -24.424  0.00  0.00    -0.387 OA
ATOM     18  H   UNL     1       1.721   1.933 -24.680  0.00  0.00    +0.210 HD
ENDBRANCH  10  17
ENDBRANCH   1  10
TORSDOF 4
ENDMDL
MODEL 7
REMARK VINA RESULT:    -6.552      1.946      6.039
REMARK INTER + INTRA:          -8.557
REMARK INTER:                  -8.231
REMARK INTRA:                  -0.326
REMARK UNBOUND:                -0.664
REMARK  Name = ZINC000014695373
REMARK  5 active torsions:
REMARK  status: ('A' for Active; 'I' for Inactive)
REMARK    1  A    between atoms: C_1  and  N_2
REMARK    2  A    between atoms: C_7  and  C_8
REMARK    3  A    between atoms: C_8  and  C_9
REMARK    4  A    between atoms: C_9  and  O_10
REMARK    5  A    between atoms: C_9  and  C_11
REMARK                            x       y       z     vdW  Elec       q    Type
REMARK                         _______ _______ _______ _____ _____    ______ ____
ROOT
ATOM      1  C   UNL     1       0.231   3.339 -24.128  0.00  0.00    +0.090 C 
ENDROOT
BRANCH   1   9
ATOM      2  C   UNL     1      -0.717   2.137 -22.027  0.00  0.00    +0.190 C 
ATOM      3  N   UNL     1      -1.523   2.744 -22.847  0.00  0.00    +0.235 N 
ATOM      4  H   UNL     1      -0.617   2.422 -22.502  0.00  0.00    +0.203 HD
ATOM      5  C   UNL     1      -2.802   2.751 -22.616  0.00  0.00    +0.131 C 
ATOM      6  C   UNL     1      -3.607   3.358 -23.436  0.00  0.00    +0.051 C 
ATOM      7  C   UNL     1      -3.133   3.959 -24.487  0.00  0.00    +0.011 C 
ATOM      8  C   UNL     1      -1.854   3.953 -24.717  0.00  0.00    +0.055 C 
ATOM      9  C   UNL     1      -1.049   3.345 -23.897  0.00  0.00    +0.067 C 
ENDBRANCH   1   9
BRANCH   1  10
ATOM     10  C   UNL     1       0.994   4.238 -23.582  0.00  0.00    +0.150 C 
BRANCH  10  11
ATOM     11  C   UNL     1       2.278   4.043 -23.507  0.00  0.00    -0.019 A 
ATOM     12  C   UNL     1       3.058   5.002 -23.106  0.00  0.00    +0.006 A 
ATOM     13  C   UNL     1       4.341   4.808 -23.031  0.00  0.00    +0.000 A 
ATOM     14  C   UNL     1       4.843   3.654 -23.356  0.00  0.00    +0.000 A 
ATOM     15  C   UNL     1       4.062   2.694 -23.756  0.00  0.00    +0.000 A 
ATOM     16  C   UNL     1       2.780   2.889 -23.832  0.00  0.00    +0.006 A 
ENDBRANCH  10  11
BRANCH  10  17
ATOM     17  O   UNL     1       0.475   5.333 -23.111  0.00  0.00    -0.387 OA
ATOM     18  H   UNL     1      -0.191   5.668 -23.730  0.00  0.00    +0.210 HD
ENDBRANCH  10  17
ENDBRANCH   1  10
TORSDOF 4
ENDMDL
MODEL 8
REMARK VINA RESULT:    -6.303      2.691      5.718
REMARK INTER + INTRA:          -8.256
REMARK INTER:                  -7.592
REMARK INTRA:                  -0.664
REMARK UNBOUND:                -0.664
REMARK  Name = ZINC000014695373
REMARK  5 active torsions:
REMARK  status: ('A' for Active; 'I' for Inactive)
REMARK    1  A    between atoms: C_1  and  N_2
REMARK    2  A    between atoms: C_7  and  C_8
REMARK    3  A    between atoms: C_8  and  C_9
REMARK    4  A    between atoms: C_9  and  O_10
REMARK    5  A    between atoms: C_9  and  C_11
REMARK                            x       y       z     vdW  Elec       q    Type
REMARK                         _______ _______ _______ _____ _____    ______ ____
ROOT
ATOM      1  C   UNL     1       1.845   4.727 -24.130  0.00  0.00    +0.090 C 
ENDROOT
BRANCH   1   9
ATOM      2  C   UNL     1       0.378   3.489 -25.884  0.00  0.00    +0.190 C 
ATOM      3  N   UNL     1      -0.166   3.968 -24.804  0.00  0.00    +0.235 N 
ATOM      4  H   UNL     1       0.601   3.769 -25.449  0.00  0.00    +0.203 HD
ATOM      5  C   UNL     1      -1.441   3.827 -24.601  0.00  0.00    +0.131 C 
ATOM      6  C   UNL     1      -1.984   4.306 -23.521  0.00  0.00    +0.051 C 
ATOM      7  C   UNL     1      -1.251   4.925 -22.644  0.00  0.00    +0.011 C 
ATOM      8  C   UNL     1       0.025   5.065 -22.847  0.00  0.00    +0.055 C 
ATOM      9  C   UNL     1       0.568   4.587 -23.927  0.00  0.00    +0.067 C 
ENDBRANCH   1   9
BRANCH   1  10
ATOM     10  C   UNL     1       2.696   4.254 -23.269  0.00  0.00    +0.150 C 
BRANCH  10  11
ATOM     11  C   UNL     1       2.805   2.969 -23.101  0.00  0.00    -0.019 A 
ATOM     12  C   UNL     1       2.444   2.428 -21.976  0.00  0.00    +0.006 A 
ATOM     13  C   UNL     1       2.553   1.144 -21.808  0.00  0.00    +0.000 A 
ATOM     14  C   UNL     1       3.023   0.401 -22.765  0.00  0.00    +0.000 A 
ATOM     15  C   UNL     1       3.384   0.942 -23.891  0.00  0.00    +0.000 A 
ATOM     16  C   UNL     1       3.275   2.226 -24.059  0.00  0.00    +0.006 A 
ENDBRANCH  10  11
BRANCH  10  17
ATOM     17  O   UNL     1       3.438   5.065 -22.575  0.00  0.00    -0.387 OA
ATOM     18  H   UNL     1       3.770   5.771 -23.150  0.00  0.00    +0.210 HD
ENDBRANCH  10  17
ENDBRANCH   1  10
TORSDOF 4
ENDMDL
MODEL 9
REMARK VINA RESULT:    -6.178      2.669      4.012
REMARK INTER + INTRA:          -8.106
REMARK INTER:                  -7.626
REMARK INTRA:                  -0.479
REMARK UNBOUND:                -0.664
REMARK  Name = ZINC000014695373
REMARK  5 active torsions:
REMARK  status: ('A' for Active; 'I' for Inactive)
REMARK    1  A    between atoms: C_1  and  N_2
REMARK    2  A    between atoms: C_7  and  C_8
REMARK    3  A    between atoms: C_8  and  C_9
REMARK    4  A    between atoms: C_9  and  O_10
REMARK    5  A    between atoms: C_9  and  C_11
REMARK                            x       y       z     vdW  Elec       q    Type
REMARK                         _______ _______ _______ _____ _____    ______ ____
ROOT
ATOM      1  C   UNL     1       3.061   2.972 -24.090  0.00  0.00    +0.090 C 
ENDROOT
BRANCH   1   9
ATOM      2  C   UNL     1       4.913   4.234 -22.772  0.00  0.00    +0.190 C 
ATOM      3  N   UNL     1       4.569   3.032 -22.418  0.00  0.00    +0.235 N 
ATOM      4  H   UNL     1       4.531   3.879 -22.986  0.00  0.00    +0.203 HD
ATOM      5  C   UNL     1       5.150   2.460 -21.406  0.00  0.00    +0.131 C 
ATOM      6  C   UNL     1       4.805   1.258 -21.053  0.00  0.00    +0.051 C 
ATOM      7  C   UNL     1       3.879   0.626 -21.711  0.00  0.00    +0.011 C 
ATOM      8  C   UNL     1       3.298   1.198 -22.723  0.00  0.00    +0.055 C 
ATOM      9  C   UNL     1       3.643   2.401 -23.077  0.00  0.00    +0.067 C 
ENDBRANCH   1   9
BRANCH   1  10
ATOM     10  C   UNL     1       1.832   2.673 -24.387  0.00  0.00    +0.150 C 
BRANCH  10  11
ATOM     11  C   UNL     1       0.851   3.313 -23.821  0.00  0.00    -0.019 A 
ATOM     12  C   UNL     1      -0.134   2.653 -23.289  0.00  0.00    +0.006 A 
ATOM     13  C   UNL     1      -1.114   3.292 -22.723  0.00  0.00    +0.000 A 
ATOM     14  C   UNL     1      -1.108   4.591 -22.689  0.00  0.00    +0.000 A 
ATOM     15  C   UNL     1      -0.123   5.252 -23.221  0.00  0.00    +0.000 A 
ATOM     16  C   UNL     1       0.857   4.612 -23.787  0.00  0.00    +0.006 A 
ENDBRANCH  10  11
BRANCH  10  17
ATOM     17  O   UNL     1       1.581   1.734 -25.250  0.00  0.00    -0.387 OA
ATOM     18  H   UNL     1       0.623   1.598 -25.312  0.00  0.00    +0.210 HD
ENDBRANCH  10  17
ENDBRANCH   1  10
TORSDOF 4
ENDMDL
