MODEL 1
REMARK VINA RESULT:    -9.170      0.000      0.000
REMARK INTER + INTRA:         -12.762
REMARK INTER:                 -11.348
REMARK INTRA:                  -1.413
REMARK UNBOUND:                -0.376
REMARK  Name = ZINC000000338365
REMARK  6 active torsions:
REMARK  status: ('A' for Active; 'I' for Inactive)
REMARK    1  A    between atoms: C_2  and  C_3
REMARK    2  A    between atoms: N_5  and  C_6
REMARK    3  A    between atoms: N_5  and  C_17
REMARK    4  A    between atoms: C_6  and  C_7
REMARK    5  A    between atoms: C_7  and  C_8
REMARK    6  A    between atoms: C_17  and  C_18
REMARK                            x       y       z     vdW  Elec       q    Type
REMARK                         _______ _______ _______ _____ _____    ______ ____
ROOT
ATOM      1  C   UNL     1      -3.357   2.902 -21.922  0.00  0.00    +0.239 C 
ATOM      2  N   UNL     1      -2.124   3.317 -21.885  0.00  0.00    -0.293 N 
ATOM      3  O   UNL     1      -3.702   1.834 -21.267  0.00  0.00    -0.271 OA
ENDROOT
BRANCH   1   5
ATOM      4  C   UNL     1      -5.508   3.390 -22.371  0.00  0.00    +0.013 C 
ATOM      5  C   UNL     1      -4.241   3.556 -22.614  0.00  0.00    +0.060 C 
ENDBRANCH   1   5
BRANCH   2   6
ATOM      6  C   UNL     1      -1.779   4.386 -22.540  0.00  0.00    +0.143 C 
BRANCH   6   7
ATOM      7  C   UNL     1      -0.872   4.315 -23.469  0.00  0.00    -0.030 A 
ATOM      8  C   UNL     1      -1.131   3.706 -24.587  0.00  0.00    +0.005 A 
ATOM      9  C   UNL     1      -0.225   3.636 -25.515  0.00  0.00    +0.000 A 
ATOM     10  C   UNL     1       0.943   4.175 -25.324  0.00  0.00    +0.000 A 
ATOM     11  C   UNL     1       1.205   4.784 -24.207  0.00  0.00    +0.000 A 
ATOM     12  C   UNL     1       0.297   4.854 -23.280  0.00  0.00    +0.005 A 
ENDBRANCH   6   7
ENDBRANCH   2   6
BRANCH   2  13
ATOM     13  C   UNL     1      -1.239   2.663 -21.193  0.00  0.00    +0.113 C 
BRANCH  13  14
ATOM     14  C   UNL     1      -0.513   1.747 -21.765  0.00  0.00    +0.056 C 
BRANCH  14  15
ATOM     15  C   UNL     1       0.709   1.548 -21.374  0.00  0.00    -0.021 A 
ATOM     16  C   UNL     1       1.114   1.467 -20.141  0.00  0.00    +0.087 A 
ATOM     17  N   UNL     1       2.397   1.264 -20.151  0.00  0.00    -0.360 N 
ATOM     18  H   UNL     1       2.973   1.162 -19.359  0.00  0.00    +0.165 HD
ATOM     19  C   UNL     1       2.789   1.219 -21.391  0.00  0.00    +0.047 A 
ATOM     20  C   UNL     1       3.956   1.041 -21.928  0.00  0.00    +0.026 A 
ATOM     21  C   UNL     1       4.086   1.038 -23.223  0.00  0.00    +0.002 A 
ATOM     22  C   UNL     1       3.042   1.214 -23.977  0.00  0.00    +0.001 A 
ATOM     23  C   UNL     1       1.871   1.392 -23.442  0.00  0.00    +0.010 A 
ATOM     24  C   UNL     1       1.744   1.395 -22.145  0.00  0.00    +0.003 A 
ENDBRANCH  14  15
ENDBRANCH  13  14
ENDBRANCH   2  13
TORSDOF 6
ENDMDL
MODEL 2
REMARK VINA RESULT:    -8.995      1.988      3.212
REMARK INTER + INTRA:         -12.525
REMARK INTER:                 -11.946
REMARK INTRA:                  -0.579
REMARK UNBOUND:                -0.376
REMARK  Name = ZINC000000338365
REMARK  6 active torsions:
REMARK  status: ('A' for Active; 'I' for Inactive)
REMARK    1  A    between atoms: C_2  and  C_3
REMARK    2  A    between atoms: N_5  and  C_6
REMARK    3  A    between atoms: N_5  and  C_17
REMARK    4  A    between atoms: C_6  and  C_7
REMARK    5  A    between atoms: C_7  and  C_8
REMARK    6  A    between atoms: C_17  and  C_18
REMARK                            x       y       z     vdW  Elec       q    Type
REMARK                         _______ _______ _______ _____ _____    ______ ____
ROOT
ATOM      1  C   UNL     1      -1.579   3.144 -21.742  0.00  0.00    +0.239 C 
ATOM      2  N   UNL     1      -1.275   3.324 -22.994  0.00  0.00    -0.293 N 
ATOM      3  O   UNL     1      -0.984   2.214 -21.056  0.00  0.00    -0.271 OA
ENDROOT
BRANCH   1   5
ATOM      4  C   UNL     1      -3.253   3.400 -20.259  0.00  0.00    +0.013 C 
ATOM      5  C   UNL     1      -2.477   3.895 -21.177  0.00  0.00    +0.060 C 
ENDBRANCH   1   5
BRANCH   2   6
ATOM      6  C   UNL     1      -1.871   4.255 -23.680  0.00  0.00    +0.143 C 
BRANCH   6   7
ATOM      7  C   UNL     1      -2.781   3.939 -24.552  0.00  0.00    -0.030 A 
ATOM      8  C   UNL     1      -2.437   3.594 -25.756  0.00  0.00    +0.005 A 
ATOM      9  C   UNL     1      -3.348   3.278 -26.628  0.00  0.00    +0.000 A 
ATOM     10  C   UNL     1      -4.604   3.308 -26.294  0.00  0.00    +0.000 A 
ATOM     11  C   UNL     1      -4.951   3.652 -25.090  0.00  0.00    +0.000 A 
ATOM     12  C   UNL     1      -4.039   3.967 -24.220  0.00  0.00    +0.005 A 
ENDBRANCH   6   7
ENDBRANCH   2   6
BRANCH   2  13
ATOM     13  C   UNL     1      -0.377   2.573 -23.559  0.00  0.00    +0.113 C 
BRANCH  13  14
ATOM     14  C   UNL     1       0.755   3.089 -23.940  0.00  0.00    +0.056 C 
BRANCH  14  15
ATOM     15  C   UNL     1       1.815   2.343 -24.018  0.00  0.00    -0.021 A 
ATOM     16  C   UNL     1       2.329   1.854 -25.107  0.00  0.00    +0.087 A 
ATOM     17  N   UNL     1       3.380   1.163 -24.782  0.00  0.00    -0.360 N 
ATOM     18  H   UNL     1       3.969   0.678 -25.405  0.00  0.00    +0.165 HD
ATOM     19  C   UNL     1       3.519   1.224 -23.491  0.00  0.00    +0.047 A 
ATOM     20  C   UNL     1       4.398   0.711 -22.686  0.00  0.00    +0.026 A 
ATOM     21  C   UNL     1       4.314   0.925 -21.405  0.00  0.00    +0.002 A 
ATOM     22  C   UNL     1       3.347   1.654 -20.934  0.00  0.00    +0.001 A 
ATOM     23  C   UNL     1       2.465   2.169 -21.738  0.00  0.00    +0.010 A 
ATOM     24  C   UNL     1       2.552   1.953 -23.019  0.00  0.00    +0.003 A 
ENDBRANCH  14  15
ENDBRANCH  13  14
ENDBRANCH   2  13
TORSDOF 6
ENDMDL
MODEL 3
REMARK VINA RESULT:    -8.853      1.885      5.775
REMARK INTER + INTRA:         -12.333
REMARK INTER:                 -11.646
REMARK INTRA:                  -0.687
REMARK UNBOUND:                -0.376
REMARK  Name = ZINC000000338365
REMARK  6 active torsions:
REMARK  status: ('A' for Active; 'I' for Inactive)
REMARK    1  A    between atoms: C_2  and  C_3
REMARK    2  A    between atoms: N_5  and  C_6
REMARK    3  A    between atoms: N_5  and  C_17
REMARK    4  A    between atoms: C_6  and  C_7
REMARK    5  A    between atoms: C_7  and  C_8
REMARK    6  A    between atoms: C_17  and  C_18
REMARK                            x       y       z     vdW  Elec       q    Type
REMARK                         _______ _______ _______ _____ _____    ______ ____
ROOT
ATOM      1  C   UNL     1       0.453   4.247 -23.604  0.00  0.00    +0.239 C 
ATOM      2  N   UNL     1       0.481   3.098 -22.994  0.00  0.00    -0.293 N 
ATOM      3  O   UNL     1      -0.378   5.168 -23.218  0.00  0.00    -0.271 OA
ENDROOT
BRANCH   1   5
ATOM      4  C   UNL     1       0.926   4.102 -25.800  0.00  0.00    +0.013 C 
ATOM      5  C   UNL     1       1.258   4.473 -24.600  0.00  0.00    +0.060 C 
ENDBRANCH   1   5
BRANCH   2   6
ATOM      6  C   UNL     1       1.313   2.177 -23.381  0.00  0.00    +0.143 C 
BRANCH   6   7
ATOM      7  C   UNL     1       2.346   1.885 -22.648  0.00  0.00    -0.030 A 
ATOM      8  C   UNL     1       3.330   2.726 -22.544  0.00  0.00    +0.005 A 
ATOM      9  C   UNL     1       4.362   2.434 -21.812  0.00  0.00    +0.000 A 
ATOM     10  C   UNL     1       4.410   1.297 -21.182  0.00  0.00    +0.000 A 
ATOM     11  C   UNL     1       3.427   0.453 -21.284  0.00  0.00    +0.000 A 
ATOM     12  C   UNL     1       2.396   0.748 -22.017  0.00  0.00    +0.005 A 
ENDBRANCH   6   7
ENDBRANCH   2   6
BRANCH   2  13
ATOM     13  C   UNL     1      -0.324   2.873 -21.998  0.00  0.00    +0.113 C 
BRANCH  13  14
ATOM     14  C   UNL     1      -1.352   2.091 -22.158  0.00  0.00    +0.056 C 
BRANCH  14  15
ATOM     15  C   UNL     1      -2.547   2.594 -22.222  0.00  0.00    -0.021 A 
ATOM     16  C   UNL     1      -3.332   2.833 -21.213  0.00  0.00    +0.087 A 
ATOM     17  N   UNL     1      -4.439   3.334 -21.674  0.00  0.00    -0.360 N 
ATOM     18  H   UNL     1      -5.216   3.611 -21.136  0.00  0.00    +0.165 HD
ATOM     19  C   UNL     1      -4.341   3.406 -22.969  0.00  0.00    +0.047 A 
ATOM     20  C   UNL     1      -5.162   3.827 -23.880  0.00  0.00    +0.026 A 
ATOM     21  C   UNL     1      -4.818   3.793 -25.135  0.00  0.00    +0.002 A 
ATOM     22  C   UNL     1      -3.649   3.335 -25.473  0.00  0.00    +0.001 A 
ATOM     23  C   UNL     1      -2.825   2.913 -24.561  0.00  0.00    +0.010 A 
ATOM     24  C   UNL     1      -3.172   2.948 -23.306  0.00  0.00    +0.003 A 
ENDBRANCH  14  15
ENDBRANCH  13  14
ENDBRANCH   2  13
TORSDOF 6
ENDMDL
MODEL 4
REMARK VINA RESULT:    -8.824      2.203      5.907
REMARK INTER + INTRA:         -12.294
REMARK INTER:                 -11.913
REMARK INTRA:                  -0.381
REMARK UNBOUND:                -0.376
REMARK  Name = ZINC000000338365
REMARK  6 active torsions:
REMARK  status: ('A' for Active; 'I' for Inactive)
REMARK    1  A    between atoms: C_2  and  C_3
REMARK    2  A    between atoms: N_5  and  C_6
REMARK    3  A    between atoms: N_5  and  C_17
REMARK    4  A    between atoms: C_6  and  C_7
REMARK    5  A    between atoms: C_7  and  C_8
REMARK    6  A    between atoms: C_17  and  C_18
REMARK                            x       y       z     vdW  Elec       q    Type
REMARK                         _______ _______ _______ _____ _____    ______ ____
ROOT
ATOM      1  C   UNL     1       1.674   1.356 -21.772  0.00  0.00    +0.239 C 
ATOM      2  N   UNL     1       1.398   2.274 -22.652  0.00  0.00    -0.293 N 
ATOM      3  O   UNL     1       0.855   1.134 -20.788  0.00  0.00    -0.271 OA
ENDROOT
BRANCH   1   5
ATOM      4  C   UNL     1       3.539   0.504 -20.844  0.00  0.00    +0.013 C 
ATOM      5  C   UNL     1       2.768   0.663 -21.878  0.00  0.00    +0.060 C 
ENDBRANCH   1   5
BRANCH   2   6
ATOM      6  C   UNL     1       2.217   2.496 -23.638  0.00  0.00    +0.143 C 
BRANCH   6   7
ATOM      7  C   UNL     1       3.245   3.272 -23.466  0.00  0.00    -0.030 A 
ATOM      8  C   UNL     1       4.445   2.813 -23.660  0.00  0.00    +0.005 A 
ATOM      9  C   UNL     1       5.474   3.589 -23.488  0.00  0.00    +0.000 A 
ATOM     10  C   UNL     1       5.301   4.824 -23.122  0.00  0.00    +0.000 A 
ATOM     11  C   UNL     1       4.102   5.285 -22.928  0.00  0.00    +0.000 A 
ATOM     12  C   UNL     1       3.076   4.508 -23.100  0.00  0.00    +0.005 A 
ENDBRANCH   6   7
ENDBRANCH   2   6
BRANCH   2  13
ATOM     13  C   UNL     1       0.303   2.967 -22.546  0.00  0.00    +0.113 C 
BRANCH  13  14
ATOM     14  C   UNL     1      -0.688   2.745 -23.359  0.00  0.00    +0.056 C 
BRANCH  14  15
ATOM     15  C   UNL     1      -1.911   2.819 -22.927  0.00  0.00    -0.021 A 
ATOM     16  C   UNL     1      -2.350   2.370 -21.789  0.00  0.00    +0.087 A 
ATOM     17  N   UNL     1      -3.621   2.629 -21.716  0.00  0.00    -0.360 N 
ATOM     18  H   UNL     1      -4.215   2.402 -20.964  0.00  0.00    +0.165 HD
ATOM     19  C   UNL     1      -3.971   3.238 -22.810  0.00  0.00    +0.047 A 
ATOM     20  C   UNL     1      -5.112   3.699 -23.221  0.00  0.00    +0.026 A 
ATOM     21  C   UNL     1      -5.202   4.281 -24.382  0.00  0.00    +0.002 A 
ATOM     22  C   UNL     1      -4.145   4.398 -25.129  0.00  0.00    +0.001 A 
ATOM     23  C   UNL     1      -3.001   3.936 -24.720  0.00  0.00    +0.010 A 
ATOM     24  C   UNL     1      -2.914   3.355 -23.558  0.00  0.00    +0.003 A 
ENDBRANCH  14  15
ENDBRANCH  13  14
ENDBRANCH   2  13
TORSDOF 6
ENDMDL
MODEL 5
REMARK VINA RESULT:    -8.796      2.030      3.593
REMARK INTER + INTRA:         -12.257
REMARK INTER:                 -11.504
REMARK INTRA:                  -0.752
REMARK UNBOUND:                -0.376
REMARK  Name = ZINC000000338365
REMARK  6 active torsions:
REMARK  status: ('A' for Active; 'I' for Inactive)
REMARK    1  A    between atoms: C_2  and  C_3
REMARK    2  A    between atoms: N_5  and  C_6
REMARK    3  A    between atoms: N_5  and  C_17
REMARK    4  A    between atoms: C_6  and  C_7
REMARK    5  A    between atoms: C_7  and  C_8
REMARK    6  A    between atoms: C_17  and  C_18
REMARK                            x       y       z     vdW  Elec       q    Type
REMARK                         _______ _______ _______ _____ _____    ______ ____
ROOT
ATOM      1  C   UNL     1      -2.637   3.731 -25.231  0.00  0.00    +0.239 C 
ATOM      2  N   UNL     1      -1.962   3.634 -24.123  0.00  0.00    -0.293 N 
ATOM      3  O   UNL     1      -2.296   3.020 -26.264  0.00  0.00    -0.271 OA
ENDROOT
BRANCH   1   5
ATOM      4  C   UNL     1      -4.849   4.063 -25.489  0.00  0.00    +0.013 C 
ATOM      5  C   UNL     1      -3.653   4.538 -25.305  0.00  0.00    +0.060 C 
ENDBRANCH   1   5
BRANCH   2   6
ATOM      6  C   UNL     1      -2.304   4.346 -23.090  0.00  0.00    +0.143 C 
BRANCH   6   7
ATOM      7  C   UNL     1      -2.889   3.782 -22.076  0.00  0.00    -0.030 A 
ATOM      8  C   UNL     1      -2.535   4.092 -20.865  0.00  0.00    +0.005 A 
ATOM      9  C   UNL     1      -3.120   3.528 -19.851  0.00  0.00    +0.000 A 
ATOM     10  C   UNL     1      -4.059   2.652 -20.049  0.00  0.00    +0.000 A 
ATOM     11  C   UNL     1      -4.415   2.339 -21.260  0.00  0.00    +0.000 A 
ATOM     12  C   UNL     1      -3.829   2.904 -22.271  0.00  0.00    +0.005 A 
ENDBRANCH   6   7
ENDBRANCH   2   6
BRANCH   2  13
ATOM     13  C   UNL     1      -0.946   2.826 -24.050  0.00  0.00    +0.113 C 
BRANCH  13  14
ATOM     14  C   UNL     1       0.219   3.278 -23.686  0.00  0.00    +0.056 C 
BRANCH  14  15
ATOM     15  C   UNL     1       0.945   2.600 -22.849  0.00  0.00    -0.021 A 
ATOM     16  C   UNL     1       0.516   1.696 -22.020  0.00  0.00    +0.087 A 
ATOM     17  N   UNL     1       1.534   1.244 -21.353  0.00  0.00    -0.360 N 
ATOM     18  H   UNL     1       1.507   0.550 -20.654  0.00  0.00    +0.165 HD
ATOM     19  C   UNL     1       2.597   1.869 -21.767  0.00  0.00    +0.047 A 
ATOM     20  C   UNL     1       3.845   1.784 -21.424  0.00  0.00    +0.026 A 
ATOM     21  C   UNL     1       4.735   2.536 -22.003  0.00  0.00    +0.002 A 
ATOM     22  C   UNL     1       4.369   3.374 -22.928  0.00  0.00    +0.001 A 
ATOM     23  C   UNL     1       3.120   3.461 -23.274  0.00  0.00    +0.010 A 
ATOM     24  C   UNL     1       2.232   2.707 -22.692  0.00  0.00    +0.003 A 
ENDBRANCH  14  15
ENDBRANCH  13  14
ENDBRANCH   2  13
TORSDOF 6
ENDMDL
MODEL 6
REMARK VINA RESULT:    -8.667      1.734      5.431
REMARK INTER + INTRA:         -12.082
REMARK INTER:                 -11.217
REMARK INTRA:                  -0.865
REMARK UNBOUND:                -0.376
REMARK  Name = ZINC000000338365
REMARK  6 active torsions:
REMARK  status: ('A' for Active; 'I' for Inactive)
REMARK    1  A    between atoms: C_2  and  C_3
REMARK    2  A    between atoms: N_5  and  C_6
REMARK    3  A    between atoms: N_5  and  C_17
REMARK    4  A    between atoms: C_6  and  C_7
REMARK    5  A    between atoms: C_7  and  C_8
REMARK    6  A    between atoms: C_17  and  C_18
REMARK                            x       y       z     vdW  Elec       q    Type
REMARK                         _______ _______ _______ _____ _____    ______ ____
ROOT
ATOM      1  C   UNL     1       1.741   1.411 -20.871  0.00  0.00    +0.239 C 
ATOM      2  N   UNL     1       0.904   1.506 -21.862  0.00  0.00    -0.293 N 
ATOM      3  O   UNL     1       1.300   1.381 -19.649  0.00  0.00    -0.271 OA
ENDROOT
BRANCH   1   5
ATOM      4  C   UNL     1       3.702   0.320 -20.696  0.00  0.00    +0.013 C 
ATOM      5  C   UNL     1       3.018   1.348 -21.103  0.00  0.00    +0.060 C 
ENDBRANCH   1   5
BRANCH   2   6
ATOM      6  C   UNL     1       1.345   1.536 -23.085  0.00  0.00    +0.143 C 
BRANCH   6   7
ATOM      7  C   UNL     1       1.361   2.656 -23.743  0.00  0.00    -0.030 A 
ATOM      8  C   UNL     1       0.850   2.718 -24.936  0.00  0.00    +0.005 A 
ATOM      9  C   UNL     1       0.865   3.838 -25.594  0.00  0.00    +0.000 A 
ATOM     10  C   UNL     1       1.394   4.898 -25.058  0.00  0.00    +0.000 A 
ATOM     11  C   UNL     1       1.906   4.840 -23.865  0.00  0.00    +0.000 A 
ATOM     12  C   UNL     1       1.889   3.719 -23.209  0.00  0.00    +0.005 A 
ENDBRANCH   6   7
ENDBRANCH   2   6
BRANCH   2  13
ATOM     13  C   UNL     1      -0.374   1.569 -21.630  0.00  0.00    +0.113 C 
BRANCH  13  14
ATOM     14  C   UNL     1      -0.978   2.721 -21.630  0.00  0.00    +0.056 C 
BRANCH  14  15
ATOM     15  C   UNL     1      -2.262   2.782 -21.813  0.00  0.00    -0.021 A 
ATOM     16  C   UNL     1      -3.172   2.273 -21.036  0.00  0.00    +0.087 A 
ATOM     17  N   UNL     1      -4.335   2.538 -21.549  0.00  0.00    -0.360 N 
ATOM     18  H   UNL     1      -5.207   2.275 -21.173  0.00  0.00    +0.165 HD
ATOM     19  C   UNL     1      -4.148   3.212 -22.645  0.00  0.00    +0.047 A 
ATOM     20  C   UNL     1      -4.975   3.706 -23.514  0.00  0.00    +0.026 A 
ATOM     21  C   UNL     1      -4.526   4.353 -24.550  0.00  0.00    +0.002 A 
ATOM     22  C   UNL     1      -3.245   4.503 -24.712  0.00  0.00    +0.001 A 
ATOM     23  C   UNL     1      -2.414   4.009 -23.844  0.00  0.00    +0.010 A 
ATOM     24  C   UNL     1      -2.867   3.362 -22.808  0.00  0.00    +0.003 A 
ENDBRANCH  14  15
ENDBRANCH  13  14
ENDBRANCH   2  13
TORSDOF 6
ENDMDL
MODEL 7
REMARK VINA RESULT:    -8.429      2.055      3.836
REMARK INTER + INTRA:         -11.761
REMARK INTER:                 -10.857
REMARK INTRA:                  -0.903
REMARK UNBOUND:                -0.376
REMARK  Name = ZINC000000338365
REMARK  6 active torsions:
REMARK  status: ('A' for Active; 'I' for Inactive)
REMARK    1  A    between atoms: C_2  and  C_3
REMARK    2  A    between atoms: N_5  and  C_6
REMARK    3  A    between atoms: N_5  and  C_17
REMARK    4  A    between atoms: C_6  and  C_7
REMARK    5  A    between atoms: C_7  and  C_8
REMARK    6  A    between atoms: C_17  and  C_18
REMARK                            x       y       z     vdW  Elec       q    Type
REMARK                         _______ _______ _______ _____ _____    ______ ____
ROOT
ATOM      1  C   UNL     1       0.614   2.622 -24.173  0.00  0.00    +0.239 C 
ATOM      2  N   UNL     1       0.213   2.630 -22.936  0.00  0.00    -0.293 N 
ATOM      3  O   UNL     1       1.371   1.659 -24.605  0.00  0.00    -0.271 OA
ENDROOT
BRANCH   1   5
ATOM      4  C   UNL     1       1.161   4.284 -25.590  0.00  0.00    +0.013 C 
ATOM      5  C   UNL     1       0.257   3.579 -24.977  0.00  0.00    +0.060 C 
ENDBRANCH   1   5
BRANCH   2   6
ATOM      6  C   UNL     1      -0.545   3.594 -22.504  0.00  0.00    +0.143 C 
BRANCH   6   7
ATOM      7  C   UNL     1      -1.783   3.357 -22.189  0.00  0.00    -0.030 A 
ATOM      8  C   UNL     1      -2.677   3.219 -23.121  0.00  0.00    +0.005 A 
ATOM      9  C   UNL     1      -3.915   2.982 -22.806  0.00  0.00    +0.000 A 
ATOM     10  C   UNL     1      -4.259   2.883 -21.556  0.00  0.00    +0.000 A 
ATOM     11  C   UNL     1      -3.366   3.021 -20.621  0.00  0.00    +0.000 A 
ATOM     12  C   UNL     1      -2.130   3.258 -20.939  0.00  0.00    +0.005 A 
ENDBRANCH   6   7
ENDBRANCH   2   6
BRANCH   2  13
ATOM     13  C   UNL     1       0.571   1.672 -22.132  0.00  0.00    +0.113 C 
BRANCH  13  14
ATOM     14  C   UNL     1       1.455   1.899 -21.204  0.00  0.00    +0.056 C 
BRANCH  14  15
ATOM     15  C   UNL     1       2.698   1.579 -21.399  0.00  0.00    -0.021 A 
ATOM     16  C   UNL     1       3.271   0.472 -21.028  0.00  0.00    +0.087 A 
ATOM     17  N   UNL     1       4.515   0.518 -21.399  0.00  0.00    -0.360 N 
ATOM     18  H   UNL     1       5.189  -0.185 -21.250  0.00  0.00    +0.165 HD
ATOM     19  C   UNL     1       4.715   1.653 -22.000  0.00  0.00    +0.047 A 
ATOM     20  C   UNL     1       5.769   2.173 -22.547  0.00  0.00    +0.026 A 
ATOM     21  C   UNL     1       5.708   3.352 -23.096  0.00  0.00    +0.002 A 
ATOM     22  C   UNL     1       4.584   4.007 -23.095  0.00  0.00    +0.001 A 
ATOM     23  C   UNL     1       3.526   3.487 -22.549  0.00  0.00    +0.010 A 
ATOM     24  C   UNL     1       3.591   2.308 -22.000  0.00  0.00    +0.003 A 
ENDBRANCH  14  15
ENDBRANCH  13  14
ENDBRANCH   2  13
TORSDOF 6
ENDMDL
MODEL 8
REMARK VINA RESULT:    -8.421      2.140      3.766
REMARK INTER + INTRA:         -11.750
REMARK INTER:                 -11.170
REMARK INTRA:                  -0.580
REMARK UNBOUND:                -0.376
REMARK  Name = ZINC000000338365
REMARK  6 active torsions:
REMARK  status: ('A' for Active; 'I' for Inactive)
REMARK    1  A    between atoms: C_2  and  C_3
REMARK    2  A    between atoms: N_5  and  C_6
REMARK    3  A    between atoms: N_5  and  C_17
REMARK    4  A    between atoms: C_6  and  C_7
REMARK    5  A    between atoms: C_7  and  C_8
REMARK    6  A    between atoms: C_17  and  C_18
REMARK                            x       y       z     vdW  Elec       q    Type
REMARK                         _______ _______ _______ _____ _____    ______ ____
ROOT
ATOM      1  C   UNL     1      -1.328   3.372 -25.152  0.00  0.00    +0.239 C 
ATOM      2  N   UNL     1      -1.125   2.965 -23.933  0.00  0.00    -0.293 N 
ATOM      3  O   UNL     1      -0.437   4.106 -25.749  0.00  0.00    -0.271 OA
ENDROOT
BRANCH   1   5
ATOM      4  C   UNL     1      -3.278   3.963 -26.108  0.00  0.00    +0.013 C 
ATOM      5  C   UNL     1      -2.422   3.045 -25.772  0.00  0.00    +0.060 C 
ENDBRANCH   1   5
BRANCH   2   6
ATOM      6  C   UNL     1      -2.016   2.231 -23.336  0.00  0.00    +0.143 C 
BRANCH   6   7
ATOM      7  C   UNL     1      -2.767   2.745 -22.408  0.00  0.00    -0.030 A 
ATOM      8  C   UNL     1      -4.014   3.012 -22.653  0.00  0.00    +0.005 A 
ATOM      9  C   UNL     1      -4.764   3.526 -21.725  0.00  0.00    +0.000 A 
ATOM     10  C   UNL     1      -4.265   3.773 -20.550  0.00  0.00    +0.000 A 
ATOM     11  C   UNL     1      -3.018   3.506 -20.301  0.00  0.00    +0.000 A 
ATOM     12  C   UNL     1      -2.270   2.993 -21.231  0.00  0.00    +0.005 A 
ENDBRANCH   6   7
ENDBRANCH   2   6
BRANCH   2  13
ATOM     13  C   UNL     1      -0.030   3.294 -23.313  0.00  0.00    +0.113 C 
BRANCH  13  14
ATOM     14  C   UNL     1       0.857   2.383 -23.034  0.00  0.00    +0.056 C 
BRANCH  14  15
ATOM     15  C   UNL     1       2.083   2.727 -22.780  0.00  0.00    -0.021 A 
ATOM     16  C   UNL     1       2.656   3.839 -23.135  0.00  0.00    +0.087 A 
ATOM     17  N   UNL     1       3.880   3.819 -22.700  0.00  0.00    -0.360 N 
ATOM     18  H   UNL     1       4.549   4.531 -22.823  0.00  0.00    +0.165 HD
ATOM     19  C   UNL     1       4.067   2.694 -22.075  0.00  0.00    +0.047 A 
ATOM     20  C   UNL     1       5.101   2.198 -21.469  0.00  0.00    +0.026 A 
ATOM     21  C   UNL     1       5.030   1.025 -20.909  0.00  0.00    +0.002 A 
ATOM     22  C   UNL     1       3.920   0.351 -20.959  0.00  0.00    +0.001 A 
ATOM     23  C   UNL     1       2.882   0.846 -21.566  0.00  0.00    +0.010 A 
ATOM     24  C   UNL     1       2.956   2.020 -22.125  0.00  0.00    +0.003 A 
ENDBRANCH  14  15
ENDBRANCH  13  14
ENDBRANCH   2  13
TORSDOF 6
ENDMDL
MODEL 9
REMARK VINA RESULT:    -8.087      2.782      6.468
REMARK INTER + INTRA:         -11.299
REMARK INTER:                 -10.924
REMARK INTRA:                  -0.376
REMARK UNBOUND:                -0.376
REMARK  Name = ZINC000000338365
REMARK  6 active torsions:
REMARK  status: ('A' for Active; 'I' for Inactive)
REMARK    1  A    between atoms: C_2  and  C_3
REMARK    2  A    between atoms: N_5  and  C_6
REMARK    3  A    between atoms: N_5  and  C_17
REMARK    4  A    between atoms: C_6  and  C_7
REMARK    5  A    between atoms: C_7  and  C_8
REMARK    6  A    between atoms: C_17  and  C_18
REMARK                            x       y       z     vdW  Elec       q    Type
REMARK                         _______ _______ _______ _____ _____    ______ ____
ROOT
ATOM      1  C   UNL     1       3.715   5.273 -22.978  0.00  0.00    +0.239 C 
ATOM      2  N   UNL     1       2.751   4.477 -23.338  0.00  0.00    -0.293 N 
ATOM      3  O   UNL     1       3.447   6.486 -22.594  0.00  0.00    -0.271 OA
ENDROOT
BRANCH   1   5
ATOM      4  C   UNL     1       5.875   5.536 -22.401  0.00  0.00    +0.013 C 
ATOM      5  C   UNL     1       4.945   4.856 -23.004  0.00  0.00    +0.060 C 
ENDBRANCH   1   5
BRANCH   2   6
ATOM      6  C   UNL     1       3.019   3.265 -23.723  0.00  0.00    +0.143 C 
BRANCH   6   7
ATOM      7  C   UNL     1       3.243   2.337 -22.841  0.00  0.00    -0.030 A 
ATOM      8  C   UNL     1       2.391   2.131 -21.882  0.00  0.00    +0.005 A 
ATOM      9  C   UNL     1       2.615   1.203 -21.000  0.00  0.00    +0.000 A 
ATOM     10  C   UNL     1       3.693   0.480 -21.079  0.00  0.00    +0.000 A 
ATOM     11  C   UNL     1       4.547   0.683 -22.037  0.00  0.00    +0.000 A 
ATOM     12  C   UNL     1       4.320   1.611 -22.917  0.00  0.00    +0.005 A 
ENDBRANCH   6   7
ENDBRANCH   2   6
BRANCH   2  13
ATOM     13  C   UNL     1       1.520   4.895 -23.311  0.00  0.00    +0.113 C 
BRANCH  13  14
ATOM     14  C   UNL     1       0.638   4.370 -24.111  0.00  0.00    +0.056 C 
BRANCH  14  15
ATOM     15  C   UNL     1      -0.596   4.246 -23.726  0.00  0.00    -0.021 A 
ATOM     16  C   UNL     1      -1.043   4.424 -22.518  0.00  0.00    +0.087 A 
ATOM     17  N   UNL     1      -2.324   4.210 -22.527  0.00  0.00    -0.360 N 
ATOM     18  H   UNL     1      -2.926   4.273 -21.749  0.00  0.00    +0.165 HD
ATOM     19  C   UNL     1      -2.673   3.900 -23.740  0.00  0.00    +0.047 A 
ATOM     20  C   UNL     1      -3.821   3.602 -24.265  0.00  0.00    +0.026 A 
ATOM     21  C   UNL     1      -3.907   3.324 -25.534  0.00  0.00    +0.002 A 
ATOM     22  C   UNL     1      -2.839   3.346 -26.274  0.00  0.00    +0.001 A 
ATOM     23  C   UNL     1      -1.688   3.645 -25.751  0.00  0.00    +0.010 A 
ATOM     24  C   UNL     1      -1.605   3.923 -24.481  0.00  0.00    +0.003 A 
ENDBRANCH  14  15
ENDBRANCH  13  14
ENDBRANCH   2  13
TORSDOF 6
ENDMDL
