MODEL 1
REMARK VINA RESULT:    -8.938      0.000      0.000
REMARK INTER + INTRA:          -8.877
REMARK INTER:                  -9.548
REMARK INTRA:                   0.671
REMARK UNBOUND:                 1.106
REMARK  Name = ZINC000014952150
REMARK  2 active torsions:
REMARK  status: ('A' for Active; 'I' for Inactive)
REMARK    1  A    between atoms: C_2  and  C_3
REMARK    2  A    between atoms: C_4  and  C_5
REMARK                            x       y       z     vdW  Elec       q    Type
REMARK                         _______ _______ _______ _____ _____    ______ ____
ROOT
ATOM      1  C   UNL     1       3.685   4.147 -23.278  0.00  0.00    +0.090 C 
ATOM      2  C   UNL     1       2.627   4.904 -23.317  0.00  0.00    +0.054 C 
ATOM      3  C   UNL     1       2.706   6.150 -22.953  0.00  0.00    -0.022 C 
ATOM      4  C   UNL     1       3.842   6.639 -22.552  0.00  0.00    -0.027 C 
ATOM      5  C   UNL     1       4.898   5.883 -22.514  0.00  0.00    +0.015 C 
ATOM      6  C   UNL     1       6.033   6.372 -22.112  0.00  0.00    +0.008 C 
ATOM      7  C   UNL     1       7.091   5.615 -22.074  0.00  0.00    +0.001 C 
ATOM      8  C   UNL     1       7.012   4.370 -22.437  0.00  0.00    +0.000 C 
ATOM      9  C   UNL     1       5.876   3.880 -22.839  0.00  0.00    +0.005 C 
ATOM     10  C   UNL     1       4.820   4.637 -22.877  0.00  0.00    +0.009 C 
ENDROOT
BRANCH   2  11
ATOM     11  C   UNL     1       1.492   4.414 -23.718  0.00  0.00    -0.036 A 
ATOM     12  C   UNL     1       1.236   4.323 -24.990  0.00  0.00    +0.008 A 
ATOM     13  C   UNL     1       0.101   3.833 -25.390  0.00  0.00    +0.050 A 
ATOM     14  C   UNL     1      -0.779   3.433 -24.520  0.00  0.00    +0.166 A 
ATOM     15  C   UNL     1      -0.523   3.524 -23.248  0.00  0.00    +0.167 A 
ATOM     16  O   UNL     1      -1.549   3.063 -22.597  0.00  0.00    -0.453 OA
ATOM     17  C   UNL     1      -2.440   2.688 -23.466  0.00  0.00    +0.466 C 
ATOM     18  O   UNL     1      -1.963   2.916 -24.654  0.00  0.00    -0.453 OA
ATOM     19  C   UNL     1       0.614   4.014 -22.847  0.00  0.00    +0.053 A 
ENDBRANCH   2  11
BRANCH   1  21
ATOM     20  O   UNL     1       3.732   2.581 -24.896  0.00  0.00    -0.275 OA
ATOM     21  C   UNL     1       3.606   2.902 -23.642  0.00  0.00    +0.220 C 
ATOM     22  N   UNL     1       3.401   1.977 -22.752  0.00  0.00    -0.301 N 
ATOM     23  C   UNL     1       3.303   0.700 -22.984  0.00  0.00    +0.108 C 
ATOM     24  C   UNL     1       3.100   0.100 -21.849  0.00  0.00    +0.020 C 
ATOM     25  C   UNL     1       3.072   1.005 -20.915  0.00  0.00    +0.020 C 
ATOM     26  C   UNL     1       3.259   2.165 -21.473  0.00  0.00    +0.108 C 
ENDBRANCH   1  21
TORSDOF 2
ENDMDL
MODEL 2
REMARK VINA RESULT:    -8.860      2.675      7.011
REMARK INTER + INTRA:          -8.789
REMARK INTER:                 -10.965
REMARK INTRA:                   2.176
REMARK UNBOUND:                 1.106
REMARK  Name = ZINC000014952150
REMARK  2 active torsions:
REMARK  status: ('A' for Active; 'I' for Inactive)
REMARK    1  A    between atoms: C_2  and  C_3
REMARK    2  A    between atoms: C_4  and  C_5
REMARK                            x       y       z     vdW  Elec       q    Type
REMARK                         _______ _______ _______ _____ _____    ______ ____
ROOT
ATOM      1  C   UNL     1      -1.917   4.027 -23.884  0.00  0.00    +0.090 C 
ATOM      2  C   UNL     1      -0.849   3.643 -24.520  0.00  0.00    +0.054 C 
ATOM      3  C   UNL     1      -0.933   3.265 -25.761  0.00  0.00    -0.022 C 
ATOM      4  C   UNL     1      -2.085   3.271 -26.366  0.00  0.00    -0.027 C 
ATOM      5  C   UNL     1      -3.151   3.655 -25.730  0.00  0.00    +0.015 C 
ATOM      6  C   UNL     1      -4.302   3.660 -26.334  0.00  0.00    +0.008 C 
ATOM      7  C   UNL     1      -5.369   4.044 -25.698  0.00  0.00    +0.001 C 
ATOM      8  C   UNL     1      -5.285   4.422 -24.457  0.00  0.00    +0.000 C 
ATOM      9  C   UNL     1      -4.134   4.416 -23.852  0.00  0.00    +0.005 C 
ATOM     10  C   UNL     1      -3.067   4.033 -24.489  0.00  0.00    +0.009 C 
ENDROOT
BRANCH   2  11
ATOM     11  C   UNL     1       0.301   3.638 -23.915  0.00  0.00    -0.036 A 
ATOM     12  C   UNL     1       1.098   4.659 -24.023  0.00  0.00    +0.008 A 
ATOM     13  C   UNL     1       2.248   4.653 -23.417  0.00  0.00    +0.050 A 
ATOM     14  C   UNL     1       2.602   3.625 -22.703  0.00  0.00    +0.166 A 
ATOM     15  C   UNL     1       1.805   2.604 -22.595  0.00  0.00    +0.167 A 
ATOM     16  O   UNL     1       2.384   1.721 -21.837  0.00  0.00    -0.453 OA
ATOM     17  C   UNL     1       3.539   2.196 -21.477  0.00  0.00    +0.466 C 
ATOM     18  O   UNL     1       3.673   3.373 -22.012  0.00  0.00    -0.453 OA
ATOM     19  C   UNL     1       0.654   2.610 -23.201  0.00  0.00    +0.053 A 
ENDBRANCH   2  11
BRANCH   1  21
ATOM     20  O   UNL     1      -1.116   5.443 -22.327  0.00  0.00    -0.275 OA
ATOM     21  C   UNL     1      -1.833   4.405 -22.643  0.00  0.00    +0.220 C 
ATOM     22  N   UNL     1      -2.465   3.746 -21.718  0.00  0.00    -0.301 N 
ATOM     23  C   UNL     1      -2.463   4.020 -20.446  0.00  0.00    +0.108 C 
ATOM     24  C   UNL     1      -3.207   3.140 -19.845  0.00  0.00    +0.020 C 
ATOM     25  C   UNL     1      -3.670   2.323 -20.745  0.00  0.00    +0.020 C 
ATOM     26  C   UNL     1      -3.211   2.697 -21.902  0.00  0.00    +0.108 C 
ENDBRANCH   1  21
TORSDOF 2
ENDMDL
MODEL 3
REMARK VINA RESULT:    -8.743      2.650      4.517
REMARK INTER + INTRA:          -8.659
REMARK INTER:                 -10.337
REMARK INTRA:                   1.678
REMARK UNBOUND:                 1.106
REMARK  Name = ZINC000014952150
REMARK  2 active torsions:
REMARK  status: ('A' for Active; 'I' for Inactive)
REMARK    1  A    between atoms: C_2  and  C_3
REMARK    2  A    between atoms: C_4  and  C_5
REMARK                            x       y       z     vdW  Elec       q    Type
REMARK                         _______ _______ _______ _____ _____    ______ ____
ROOT
ATOM      1  C   UNL     1       0.128   2.710 -22.882  0.00  0.00    +0.090 C 
ATOM      2  C   UNL     1      -0.046   3.590 -23.824  0.00  0.00    +0.054 C 
ATOM      3  C   UNL     1       0.971   4.255 -24.288  0.00  0.00    -0.022 C 
ATOM      4  C   UNL     1       2.161   4.039 -23.810  0.00  0.00    -0.027 C 
ATOM      5  C   UNL     1       2.334   3.160 -22.869  0.00  0.00    +0.015 C 
ATOM      6  C   UNL     1       3.524   2.945 -22.392  0.00  0.00    +0.008 C 
ATOM      7  C   UNL     1       3.698   2.065 -21.450  0.00  0.00    +0.001 C 
ATOM      8  C   UNL     1       2.682   1.401 -20.986  0.00  0.00    +0.000 C 
ATOM      9  C   UNL     1       1.491   1.616 -21.464  0.00  0.00    +0.005 C 
ATOM     10  C   UNL     1       1.318   2.495 -22.405  0.00  0.00    +0.009 C 
ENDROOT
BRANCH   2  11
ATOM     11  C   UNL     1      -1.236   3.804 -24.301  0.00  0.00    -0.036 A 
ATOM     12  C   UNL     1      -1.848   4.923 -24.045  0.00  0.00    +0.008 A 
ATOM     13  C   UNL     1      -3.038   5.136 -24.522  0.00  0.00    +0.050 A 
ATOM     14  C   UNL     1      -3.617   4.231 -25.255  0.00  0.00    +0.166 A 
ATOM     15  C   UNL     1      -3.005   3.113 -25.510  0.00  0.00    +0.167 A 
ATOM     16  O   UNL     1      -3.787   2.387 -26.253  0.00  0.00    -0.453 OA
ATOM     17  C   UNL     1      -4.882   3.057 -26.457  0.00  0.00    +0.466 C 
ATOM     18  O   UNL     1      -4.776   4.196 -25.840  0.00  0.00    -0.453 OA
ATOM     19  C   UNL     1      -1.814   2.899 -25.033  0.00  0.00    +0.053 A 
ENDBRANCH   2  11
BRANCH   1  21
ATOM     20  O   UNL     1      -1.037   0.790 -22.722  0.00  0.00    -0.275 OA
ATOM     21  C   UNL     1      -0.888   2.046 -22.418  0.00  0.00    +0.220 C 
ATOM     22  N   UNL     1      -1.755   2.636 -21.650  0.00  0.00    -0.301 N 
ATOM     23  C   UNL     1      -2.810   2.086 -21.123  0.00  0.00    +0.108 C 
ATOM     24  C   UNL     1      -3.426   2.990 -20.421  0.00  0.00    +0.020 C 
ATOM     25  C   UNL     1      -2.752   4.098 -20.514  0.00  0.00    +0.020 C 
ATOM     26  C   UNL     1      -1.719   3.880 -21.273  0.00  0.00    +0.108 C 
ENDBRANCH   1  21
TORSDOF 2
ENDMDL
MODEL 4
REMARK VINA RESULT:    -8.681      2.525      6.692
REMARK INTER + INTRA:          -8.589
REMARK INTER:                  -9.858
REMARK INTRA:                   1.268
REMARK UNBOUND:                 1.106
REMARK  Name = ZINC000014952150
REMARK  2 active torsions:
REMARK  status: ('A' for Active; 'I' for Inactive)
REMARK    1  A    between atoms: C_2  and  C_3
REMARK    2  A    between atoms: C_4  and  C_5
REMARK                            x       y       z     vdW  Elec       q    Type
REMARK                         _______ _______ _______ _____ _____    ______ ____
ROOT
ATOM      1  C   UNL     1      -1.798   3.786 -23.934  0.00  0.00    +0.090 C 
ATOM      2  C   UNL     1      -0.879   3.768 -24.853  0.00  0.00    +0.054 C 
ATOM      3  C   UNL     1      -1.215   3.703 -26.107  0.00  0.00    -0.022 C 
ATOM      4  C   UNL     1      -2.471   3.656 -26.442  0.00  0.00    -0.027 C 
ATOM      5  C   UNL     1      -3.389   3.674 -25.522  0.00  0.00    +0.015 C 
ATOM      6  C   UNL     1      -4.644   3.627 -25.857  0.00  0.00    +0.008 C 
ATOM      7  C   UNL     1      -5.564   3.644 -24.937  0.00  0.00    +0.001 C 
ATOM      8  C   UNL     1      -5.228   3.709 -23.683  0.00  0.00    +0.000 C 
ATOM      9  C   UNL     1      -3.972   3.756 -23.349  0.00  0.00    +0.005 C 
ATOM     10  C   UNL     1      -3.053   3.739 -24.268  0.00  0.00    +0.009 C 
ENDROOT
BRANCH   2  11
ATOM     11  C   UNL     1       0.377   3.816 -24.518  0.00  0.00    -0.036 A 
ATOM     12  C   UNL     1       0.875   4.905 -24.012  0.00  0.00    +0.008 A 
ATOM     13  C   UNL     1       2.129   4.951 -23.677  0.00  0.00    +0.050 A 
ATOM     14  C   UNL     1       2.887   3.908 -23.847  0.00  0.00    +0.166 A 
ATOM     15  C   UNL     1       2.389   2.819 -24.353  0.00  0.00    +0.167 A 
ATOM     16  O   UNL     1       3.340   1.935 -24.418  0.00  0.00    -0.453 OA
ATOM     17  C   UNL     1       4.426   2.478 -23.953  0.00  0.00    +0.466 C 
ATOM     18  O   UNL     1       4.145   3.697 -23.601  0.00  0.00    -0.453 OA
ATOM     19  C   UNL     1       1.133   2.772 -24.688  0.00  0.00    +0.053 A 
ENDBRANCH   2  11
BRANCH   1  21
ATOM     20  O   UNL     1      -1.551   4.980 -22.040  0.00  0.00    -0.275 OA
ATOM     21  C   UNL     1      -1.462   3.851 -22.680  0.00  0.00    +0.220 C 
ATOM     22  N   UNL     1      -1.037   2.787 -22.065  0.00  0.00    -0.301 N 
ATOM     23  C   UNL     1      -0.671   2.720 -20.818  0.00  0.00    +0.108 C 
ATOM     24  C   UNL     1      -0.311   1.496 -20.571  0.00  0.00    +0.020 C 
ATOM     25  C   UNL     1      -0.454   0.806 -21.665  0.00  0.00    +0.020 C 
ATOM     26  C   UNL     1      -0.902   1.605 -22.588  0.00  0.00    +0.108 C 
ENDBRANCH   1  21
TORSDOF 2
ENDMDL
MODEL 5
REMARK VINA RESULT:    -7.823      2.671      7.448
REMARK INTER + INTRA:          -7.631
REMARK INTER:                  -9.329
REMARK INTRA:                   1.698
REMARK UNBOUND:                 1.106
REMARK  Name = ZINC000014952150
REMARK  2 active torsions:
REMARK  status: ('A' for Active; 'I' for Inactive)
REMARK    1  A    between atoms: C_2  and  C_3
REMARK    2  A    between atoms: C_4  and  C_5
REMARK                            x       y       z     vdW  Elec       q    Type
REMARK                         _______ _______ _______ _____ _____    ______ ____
ROOT
ATOM      1  C   UNL     1      -2.374   3.253 -22.962  0.00  0.00    +0.090 C 
ATOM      2  C   UNL     1      -1.322   2.668 -22.468  0.00  0.00    +0.054 C 
ATOM      3  C   UNL     1      -1.436   1.899 -21.426  0.00  0.00    -0.022 C 
ATOM      4  C   UNL     1      -2.601   1.714 -20.879  0.00  0.00    -0.027 C 
ATOM      5  C   UNL     1      -3.651   2.299 -21.373  0.00  0.00    +0.015 C 
ATOM      6  C   UNL     1      -4.816   2.114 -20.825  0.00  0.00    +0.008 C 
ATOM      7  C   UNL     1      -5.867   2.698 -21.319  0.00  0.00    +0.001 C 
ATOM      8  C   UNL     1      -5.754   3.468 -22.361  0.00  0.00    +0.000 C 
ATOM      9  C   UNL     1      -4.589   3.653 -22.909  0.00  0.00    +0.005 C 
ATOM     10  C   UNL     1      -3.538   3.068 -22.414  0.00  0.00    +0.009 C 
ENDROOT
BRANCH   2  11
ATOM     11  C   UNL     1      -0.158   2.854 -23.017  0.00  0.00    -0.036 A 
ATOM     12  C   UNL     1       0.100   2.343 -24.183  0.00  0.00    +0.008 A 
ATOM     13  C   UNL     1       1.264   2.529 -24.731  0.00  0.00    +0.050 A 
ATOM     14  C   UNL     1       2.170   3.227 -24.111  0.00  0.00    +0.166 A 
ATOM     15  C   UNL     1       1.912   3.738 -22.945  0.00  0.00    +0.167 A 
ATOM     16  O   UNL     1       2.968   4.381 -22.544  0.00  0.00    -0.453 OA
ATOM     17  C   UNL     1       3.880   4.267 -23.464  0.00  0.00    +0.466 C 
ATOM     18  O   UNL     1       3.386   3.554 -24.432  0.00  0.00    -0.453 OA
ATOM     19  C   UNL     1       0.747   3.552 -22.396  0.00  0.00    +0.053 A 
ENDBRANCH   2  11
BRANCH   1  21
ATOM     20  O   UNL     1      -1.613   5.147 -23.914  0.00  0.00    -0.275 OA
ATOM     21  C   UNL     1      -2.261   4.023 -24.004  0.00  0.00    +0.220 C 
ATOM     22  N   UNL     1      -2.794   3.669 -25.135  0.00  0.00    -0.301 N 
ATOM     23  C   UNL     1      -2.753   4.345 -26.245  0.00  0.00    +0.108 C 
ATOM     24  C   UNL     1      -3.396   3.671 -27.151  0.00  0.00    +0.020 C 
ATOM     25  C   UNL     1      -3.836   2.577 -26.600  0.00  0.00    +0.020 C 
ATOM     26  C   UNL     1      -3.464   2.576 -25.355  0.00  0.00    +0.108 C 
ENDBRANCH   1  21
TORSDOF 2
ENDMDL
MODEL 6
REMARK VINA RESULT:    -7.728      1.821      2.458
REMARK INTER + INTRA:          -7.525
REMARK INTER:                  -9.103
REMARK INTRA:                   1.579
REMARK UNBOUND:                 1.106
REMARK  Name = ZINC000014952150
REMARK  2 active torsions:
REMARK  status: ('A' for Active; 'I' for Inactive)
REMARK    1  A    between atoms: C_2  and  C_3
REMARK    2  A    between atoms: C_4  and  C_5
REMARK                            x       y       z     vdW  Elec       q    Type
REMARK                         _______ _______ _______ _____ _____    ______ ____
ROOT
ATOM      1  C   UNL     1       2.152   3.381 -23.392  0.00  0.00    +0.090 C 
ATOM      2  C   UNL     1       1.485   4.481 -23.583  0.00  0.00    +0.054 C 
ATOM      3  C   UNL     1       2.083   5.631 -23.474  0.00  0.00    -0.022 C 
ATOM      4  C   UNL     1       3.348   5.679 -23.176  0.00  0.00    -0.027 C 
ATOM      5  C   UNL     1       4.014   4.579 -22.986  0.00  0.00    +0.015 C 
ATOM      6  C   UNL     1       5.278   4.629 -22.687  0.00  0.00    +0.008 C 
ATOM      7  C   UNL     1       5.945   3.528 -22.497  0.00  0.00    +0.001 C 
ATOM      8  C   UNL     1       5.347   2.379 -22.606  0.00  0.00    +0.000 C 
ATOM      9  C   UNL     1       4.082   2.330 -22.904  0.00  0.00    +0.005 C 
ATOM     10  C   UNL     1       3.416   3.430 -23.094  0.00  0.00    +0.009 C 
ENDROOT
BRANCH   2  11
ATOM     11  C   UNL     1       0.221   4.431 -23.881  0.00  0.00    -0.036 A 
ATOM     12  C   UNL     1      -0.662   4.912 -23.057  0.00  0.00    +0.008 A 
ATOM     13  C   UNL     1      -1.926   4.862 -23.356  0.00  0.00    +0.050 A 
ATOM     14  C   UNL     1      -2.307   4.330 -24.480  0.00  0.00    +0.166 A 
ATOM     15  C   UNL     1      -1.425   3.849 -25.304  0.00  0.00    +0.167 A 
ATOM     16  O   UNL     1      -2.055   3.381 -26.340  0.00  0.00    -0.453 OA
ATOM     17  C   UNL     1      -3.328   3.572 -26.156  0.00  0.00    +0.466 C 
ATOM     18  O   UNL     1      -3.483   4.159 -25.006  0.00  0.00    -0.453 OA
ATOM     19  C   UNL     1      -0.159   3.900 -25.005  0.00  0.00    +0.053 A 
ENDBRANCH   2  11
BRANCH   1  21
ATOM     20  O   UNL     1       1.769   1.483 -24.542  0.00  0.00    -0.275 OA
ATOM     21  C   UNL     1       1.554   2.232 -23.501  0.00  0.00    +0.220 C 
ATOM     22  N   UNL     1       0.742   1.831 -22.568  0.00  0.00    -0.301 N 
ATOM     23  C   UNL     1       0.085   0.708 -22.557  0.00  0.00    +0.108 C 
ATOM     24  C   UNL     1      -0.619   0.666 -21.465  0.00  0.00    +0.020 C 
ATOM     25  C   UNL     1      -0.397   1.762 -20.802  0.00  0.00    +0.020 C 
ATOM     26  C   UNL     1       0.444   2.482 -21.483  0.00  0.00    +0.108 C 
ENDBRANCH   1  21
TORSDOF 2
ENDMDL
MODEL 7
REMARK VINA RESULT:    -7.653      2.371      6.487
REMARK INTER + INTRA:          -7.442
REMARK INTER:                  -8.450
REMARK INTRA:                   1.008
REMARK UNBOUND:                 1.106
REMARK  Name = ZINC000014952150
REMARK  2 active torsions:
REMARK  status: ('A' for Active; 'I' for Inactive)
REMARK    1  A    between atoms: C_2  and  C_3
REMARK    2  A    between atoms: C_4  and  C_5
REMARK                            x       y       z     vdW  Elec       q    Type
REMARK                         _______ _______ _______ _____ _____    ______ ____
ROOT
ATOM      1  C   UNL     1      -0.588   2.622 -23.170  0.00  0.00    +0.090 C 
ATOM      2  C   UNL     1      -0.188   1.875 -22.183  0.00  0.00    +0.054 C 
ATOM      3  C   UNL     1      -1.034   1.491 -21.274  0.00  0.00    -0.022 C 
ATOM      4  C   UNL     1      -2.281   1.853 -21.352  0.00  0.00    -0.027 C 
ATOM      5  C   UNL     1      -2.680   2.599 -22.339  0.00  0.00    +0.015 C 
ATOM      6  C   UNL     1      -3.926   2.960 -22.416  0.00  0.00    +0.008 C 
ATOM      7  C   UNL     1      -4.327   3.706 -23.403  0.00  0.00    +0.001 C 
ATOM      8  C   UNL     1      -3.481   4.091 -24.312  0.00  0.00    +0.000 C 
ATOM      9  C   UNL     1      -2.234   3.729 -24.234  0.00  0.00    +0.005 C 
ATOM     10  C   UNL     1      -1.834   2.983 -23.248  0.00  0.00    +0.009 C 
ENDROOT
BRANCH   2  11
ATOM     11  C   UNL     1       1.059   1.514 -22.106  0.00  0.00    -0.036 A 
ATOM     12  C   UNL     1       1.485   0.495 -22.791  0.00  0.00    +0.008 A 
ATOM     13  C   UNL     1       2.731   0.135 -22.714  0.00  0.00    +0.050 A 
ATOM     14  C   UNL     1       3.553   0.794 -21.951  0.00  0.00    +0.166 A 
ATOM     15  C   UNL     1       3.127   1.814 -21.266  0.00  0.00    +0.167 A 
ATOM     16  O   UNL     1       4.131   2.293 -20.593  0.00  0.00    -0.453 OA
ATOM     17  C   UNL     1       5.177   1.570 -20.862  0.00  0.00    +0.466 C 
ATOM     18  O   UNL     1       4.819   0.644 -21.702  0.00  0.00    -0.453 OA
ATOM     19  C   UNL     1       1.879   2.175 -21.343  0.00  0.00    +0.053 A 
ENDBRANCH   2  11
BRANCH   1  21
ATOM     20  O   UNL     1       0.344   2.358 -25.203  0.00  0.00    -0.275 OA
ATOM     21  C   UNL     1       0.258   3.006 -24.079  0.00  0.00    +0.220 C 
ATOM     22  N   UNL     1       1.017   4.039 -23.865  0.00  0.00    -0.301 N 
ATOM     23  C   UNL     1       1.900   4.523 -24.689  0.00  0.00    +0.108 C 
ATOM     24  C   UNL     1       2.456   5.552 -24.122  0.00  0.00    +0.020 C 
ATOM     25  C   UNL     1       1.917   5.705 -22.948  0.00  0.00    +0.020 C 
ATOM     26  C   UNL     1       1.028   4.769 -22.789  0.00  0.00    +0.108 C 
ENDBRANCH   1  21
TORSDOF 2
ENDMDL
MODEL 8
REMARK VINA RESULT:    -7.203      3.028      5.468
REMARK INTER + INTRA:          -6.939
REMARK INTER:                  -8.616
REMARK INTRA:                   1.677
REMARK UNBOUND:                 1.106
REMARK  Name = ZINC000014952150
REMARK  2 active torsions:
REMARK  status: ('A' for Active; 'I' for Inactive)
REMARK    1  A    between atoms: C_2  and  C_3
REMARK    2  A    between atoms: C_4  and  C_5
REMARK                            x       y       z     vdW  Elec       q    Type
REMARK                         _______ _______ _______ _____ _____    ______ ____
ROOT
ATOM      1  C   UNL     1      -0.196   3.212 -22.851  0.00  0.00    +0.090 C 
ATOM      2  C   UNL     1      -0.741   2.497 -21.911  0.00  0.00    +0.054 C 
ATOM      3  C   UNL     1      -0.071   1.531 -21.357  0.00  0.00    -0.022 C 
ATOM      4  C   UNL     1       1.145   1.279 -21.744  0.00  0.00    -0.027 C 
ATOM      5  C   UNL     1       1.690   1.993 -22.684  0.00  0.00    +0.015 C 
ATOM      6  C   UNL     1       2.905   1.741 -23.070  0.00  0.00    +0.008 C 
ATOM      7  C   UNL     1       3.450   2.456 -24.010  0.00  0.00    +0.001 C 
ATOM      8  C   UNL     1       2.779   3.422 -24.564  0.00  0.00    +0.000 C 
ATOM      9  C   UNL     1       1.563   3.674 -24.177  0.00  0.00    +0.005 C 
ATOM     10  C   UNL     1       1.019   2.959 -23.237  0.00  0.00    +0.009 C 
ENDROOT
BRANCH   2  11
ATOM     11  C   UNL     1      -1.957   2.750 -21.525  0.00  0.00    -0.036 A 
ATOM     12  C   UNL     1      -2.168   3.354 -20.394  0.00  0.00    +0.008 A 
ATOM     13  C   UNL     1      -3.384   3.606 -20.009  0.00  0.00    +0.050 A 
ATOM     14  C   UNL     1      -4.389   3.255 -20.756  0.00  0.00    +0.166 A 
ATOM     15  C   UNL     1      -4.177   2.651 -21.887  0.00  0.00    +0.167 A 
ATOM     16  O   UNL     1      -5.331   2.410 -22.436  0.00  0.00    -0.453 OA
ATOM     17  C   UNL     1      -6.256   2.865 -21.643  0.00  0.00    +0.466 C 
ATOM     18  O   UNL     1      -5.673   3.387 -20.605  0.00  0.00    -0.453 OA
ATOM     19  C   UNL     1      -2.961   2.398 -22.273  0.00  0.00    +0.053 A 
ENDBRANCH   2  11
BRANCH   1  21
ATOM     20  O   UNL     1      -0.711   5.400 -22.987  0.00  0.00    -0.275 OA
ATOM     21  C   UNL     1      -0.867   4.178 -23.405  0.00  0.00    +0.220 C 
ATOM     22  N   UNL     1      -1.693   3.923 -24.375  0.00  0.00    -0.301 N 
ATOM     23  C   UNL     1      -2.420   4.796 -25.009  0.00  0.00    +0.108 C 
ATOM     24  C   UNL     1      -3.114   4.163 -25.908  0.00  0.00    +0.020 C 
ATOM     25  C   UNL     1      -2.817   2.899 -25.829  0.00  0.00    +0.020 C 
ATOM     26  C   UNL     1      -1.939   2.751 -24.881  0.00  0.00    +0.108 C 
ENDBRANCH   1  21
TORSDOF 2
ENDMDL
MODEL 9
REMARK VINA RESULT:    -6.470      2.234      3.987
REMARK INTER + INTRA:          -6.120
REMARK INTER:                  -7.226
REMARK INTRA:                   1.106
REMARK UNBOUND:                 1.106
REMARK  Name = ZINC000014952150
REMARK  2 active torsions:
REMARK  status: ('A' for Active; 'I' for Inactive)
REMARK    1  A    between atoms: C_2  and  C_3
REMARK    2  A    between atoms: C_4  and  C_5
REMARK                            x       y       z     vdW  Elec       q    Type
REMARK                         _______ _______ _______ _____ _____    ______ ____
ROOT
ATOM      1  C   UNL     1       1.569   2.843 -22.265  0.00  0.00    +0.090 C 
ATOM      2  C   UNL     1       0.657   2.166 -21.632  0.00  0.00    +0.054 C 
ATOM      3  C   UNL     1       1.004   1.286 -20.740  0.00  0.00    -0.022 C 
ATOM      4  C   UNL     1       2.262   1.084 -20.481  0.00  0.00    -0.027 C 
ATOM      5  C   UNL     1       3.173   1.761 -21.115  0.00  0.00    +0.015 C 
ATOM      6  C   UNL     1       4.430   1.558 -20.856  0.00  0.00    +0.008 C 
ATOM      7  C   UNL     1       5.342   2.235 -21.489  0.00  0.00    +0.001 C 
ATOM      8  C   UNL     1       4.996   3.115 -22.382  0.00  0.00    +0.000 C 
ATOM      9  C   UNL     1       3.738   3.318 -22.640  0.00  0.00    +0.005 C 
ATOM     10  C   UNL     1       2.827   2.640 -22.007  0.00  0.00    +0.009 C 
ENDROOT
BRANCH   2  11
ATOM     11  C   UNL     1      -0.600   2.370 -21.891  0.00  0.00    -0.036 A 
ATOM     12  C   UNL     1      -1.085   2.050 -23.054  0.00  0.00    +0.008 A 
ATOM     13  C   UNL     1      -2.342   2.254 -23.313  0.00  0.00    +0.050 A 
ATOM     14  C   UNL     1      -3.116   2.777 -22.408  0.00  0.00    +0.166 A 
ATOM     15  C   UNL     1      -2.631   3.097 -21.245  0.00  0.00    +0.167 A 
ATOM     16  O   UNL     1      -3.596   3.595 -20.530  0.00  0.00    -0.453 OA
ATOM     17  C   UNL     1      -4.677   3.584 -21.252  0.00  0.00    +0.466 C 
ATOM     18  O   UNL     1      -4.380   3.078 -22.412  0.00  0.00    -0.453 OA
ATOM     19  C   UNL     1      -1.373   2.893 -20.986  0.00  0.00    +0.053 A 
ENDBRANCH   2  11
BRANCH   1  21
ATOM     20  O   UNL     1       0.846   4.911 -22.786  0.00  0.00    -0.275 OA
ATOM     21  C   UNL     1       1.223   3.723 -23.157  0.00  0.00    +0.220 C 
ATOM     22  N   UNL     1       1.254   3.416 -24.420  0.00  0.00    -0.301 N 
ATOM     23  C   UNL     1       0.933   4.201 -25.407  0.00  0.00    +0.108 C 
ATOM     24  C   UNL     1       1.092   3.540 -26.514  0.00  0.00    +0.020 C 
ATOM     25  C   UNL     1       1.510   2.346 -26.212  0.00  0.00    +0.020 C 
ATOM     26  C   UNL     1       1.610   2.269 -24.918  0.00  0.00    +0.108 C 
ENDBRANCH   1  21
TORSDOF 2
ENDMDL
