MODEL 1
REMARK VINA RESULT:   -11.088      0.000      0.000
REMARK INTER + INTRA:          -9.273
REMARK INTER:                 -12.938
REMARK INTRA:                   3.665
REMARK UNBOUND:                 3.759
REMARK  Name = COc1ccc2c3c1OC1=C[C@@H](C(C)(C)O)C=C4[C@@H](C2)N(C)CC[C@]143         ZINC000096316430
REMARK  7 active torsions:
REMARK  status: ('A' for Active; 'I' for Inactive)
REMARK    1  A    between atoms: C_1  and  O_2
REMARK    2  A    between atoms: O_2  and  C_3
REMARK    3  A    between atoms: C_12  and  C_13
REMARK    4  A    between atoms: C_13  and  C_14
REMARK    5  A    between atoms: C_13  and  C_15
REMARK    6  A    between atoms: C_13  and  O_16
REMARK    7  A    between atoms: N_21  and  C_22
REMARK                            x       y       z     vdW  Elec       q    Type
REMARK                         _______ _______ _______ _____ _____    ______ ____
ROOT
ATOM      1  C   UNL     1      -4.541   3.419 -22.455  0.00  0.00    +0.162 A 
ATOM      2  C   UNL     1      -4.766   3.926 -23.595  0.00  0.00    +0.050 A 
ATOM      3  C   UNL     1      -3.854   3.996 -24.453  0.00  0.00    +0.008 A 
ATOM      4  C   UNL     1      -2.708   3.559 -24.179  0.00  0.00    -0.034 A 
ATOM      5  C   UNL     1      -2.462   3.049 -23.050  0.00  0.00    +0.020 A 
ATOM      6  C   UNL     1      -1.317   2.616 -22.784  0.00  0.00    +0.088 C 
ATOM      7  C   UNL     1      -0.056   2.089 -22.364  0.00  0.00    +0.075 C 
ATOM      8  C   UNL     1       0.995   2.153 -23.310  0.00  0.00    +0.133 C 
ATOM      9  N   UNL     1       0.706   2.725 -24.571  0.00  0.00    +0.239 N 
ATOM     10  H   UNL     1       1.427   2.796 -25.289  0.00  0.00    +0.204 HD
ATOM     11  C   UNL     1       1.580   2.820 -25.465  0.00  0.00    +0.191 C 
ATOM     12  C   UNL     1      -0.629   3.192 -24.778  0.00  0.00    +0.096 C 
ATOM     13  C   UNL     1      -0.400   2.683 -23.639  0.00  0.00    -0.007 C 
ATOM     14  C   UNL     1       0.756   2.243 -23.365  0.00  0.00    -0.011 C 
ATOM     15  C   UNL     1       0.988   1.739 -22.239  0.00  0.00    +0.069 C 
ATOM     16  C   UNL     1       0.067   1.667 -21.370  0.00  0.00    +0.026 C 
ATOM     17  C   UNL     1      -1.078   2.101 -21.637  0.00  0.00    +0.117 C 
ATOM     18  O   UNL     1      -2.495   2.325 -21.159  0.00  0.00    -0.455 OA
ATOM     19  C   UNL     1      -1.773   3.627 -25.049  0.00  0.00    +0.094 C 
ATOM     20  C   UNL     1      -3.382   2.978 -22.183  0.00  0.00    +0.174 A 
ENDROOT
BRANCH  15  21
ATOM     21  C   UNL     1       2.136   1.303 -21.971  0.00  0.00    +0.070 C 
ATOM     22  C   UNL     1       2.936   2.006 -21.307  0.00  0.00    +0.042 C 
ATOM     23  C   UNL     1       2.999   0.395 -22.046  0.00  0.00    +0.042 C 
BRANCH  21  24
ATOM     24  O   UNL     1       1.877   0.239 -22.584  0.00  0.00    -0.388 OA
ATOM     25  H   UNL     1       0.989  -0.066 -22.340  0.00  0.00    +0.210 HD
ENDBRANCH  21  24
ENDBRANCH  15  21
BRANCH   1  27
ATOM     26  C   UNL     1      -6.494   2.687 -21.842  0.00  0.00    +0.277 C 
ATOM     27  O   UNL     1      -5.458   3.352 -21.601  0.00  0.00    -0.491 OA
ENDBRANCH   1  27
TORSDOF 3
ENDMDL
MODEL 2
REMARK VINA RESULT:   -10.319      1.918      6.047
REMARK INTER + INTRA:          -8.369
REMARK INTER:                 -12.076
REMARK INTRA:                   3.707
REMARK UNBOUND:                 3.759
REMARK  Name = COc1ccc2c3c1OC1=C[C@@H](C(C)(C)O)C=C4[C@@H](C2)N(C)CC[C@]143         ZINC000096316430
REMARK  7 active torsions:
REMARK  status: ('A' for Active; 'I' for Inactive)
REMARK    1  A    between atoms: C_1  and  O_2
REMARK    2  A    between atoms: O_2  and  C_3
REMARK    3  A    between atoms: C_12  and  C_13
REMARK    4  A    between atoms: C_13  and  C_14
REMARK    5  A    between atoms: C_13  and  C_15
REMARK    6  A    between atoms: C_13  and  O_16
REMARK    7  A    between atoms: N_21  and  C_22
REMARK                            x       y       z     vdW  Elec       q    Type
REMARK                         _______ _______ _______ _____ _____    ______ ____
ROOT
ATOM      1  C   UNL     1       2.649   1.936 -23.214  0.00  0.00    +0.162 A 
ATOM      2  C   UNL     1       2.677   1.518 -22.017  0.00  0.00    +0.050 A 
ATOM      3  C   UNL     1       1.626   1.471 -21.335  0.00  0.00    +0.008 A 
ATOM      4  C   UNL     1       0.537   1.840 -21.843  0.00  0.00    -0.034 A 
ATOM      5  C   UNL     1       0.487   2.259 -23.033  0.00  0.00    +0.020 A 
ATOM      6  C   UNL     1      -0.602   2.626 -23.533  0.00  0.00    +0.088 C 
ATOM      7  C   UNL     1      -1.780   3.070 -24.211  0.00  0.00    +0.075 C 
ATOM      8  C   UNL     1      -2.983   3.029 -23.467  0.00  0.00    +0.133 C 
ATOM      9  N   UNL     1      -2.914   2.557 -22.136  0.00  0.00    +0.239 N 
ATOM     10  H   UNL     1      -3.751   2.506 -21.556  0.00  0.00    +0.204 HD
ATOM     11  C   UNL     1      -3.933   2.488 -21.409  0.00  0.00    +0.191 C 
ATOM     12  C   UNL     1      -1.626   2.162 -21.657  0.00  0.00    +0.096 C 
ATOM     13  C   UNL     1      -1.657   2.580 -22.853  0.00  0.00    -0.007 C 
ATOM     14  C   UNL     1      -2.756   2.952 -23.363  0.00  0.00    -0.011 C 
ATOM     15  C   UNL     1      -2.792   3.367 -24.548  0.00  0.00    +0.069 C 
ATOM     16  C   UNL     1      -1.731   3.417 -25.240  0.00  0.00    +0.026 C 
ATOM     17  C   UNL     1      -0.642   3.050 -24.739  0.00  0.00    +0.117 C 
ATOM     18  O   UNL     1       0.844   2.852 -24.936  0.00  0.00    -0.455 OA
ATOM     19  C   UNL     1      -0.538   1.793 -21.152  0.00  0.00    +0.094 C 
ATOM     20  C   UNL     1       1.547   2.308 -23.723  0.00  0.00    +0.174 A 
ENDROOT
BRANCH  15  21
ATOM     21  C   UNL     1      -3.884   3.735 -25.050  0.00  0.00    +0.070 C 
ATOM     22  C   UNL     1      -4.403   4.823 -24.698  0.00  0.00    +0.042 C 
ATOM     23  C   UNL     1      -4.844   3.532 -25.833  0.00  0.00    +0.042 C 
BRANCH  21  24
ATOM     24  O   UNL     1      -3.917   2.692 -25.747  0.00  0.00    -0.388 OA
ATOM     25  H   UNL     1      -4.839   2.453 -25.927  0.00  0.00    +0.210 HD
ENDBRANCH  21  24
ENDBRANCH  15  21
BRANCH   1  27
ATOM     26  C   UNL     1       4.546   2.889 -23.685  0.00  0.00    +0.277 C 
ATOM     27  O   UNL     1       3.705   1.982 -23.892  0.00  0.00    -0.491 OA
ENDBRANCH   1  27
TORSDOF 3
ENDMDL
MODEL 3
REMARK VINA RESULT:   -10.235      1.300      5.468
REMARK INTER + INTRA:          -8.270
REMARK INTER:                 -12.057
REMARK INTRA:                   3.787
REMARK UNBOUND:                 3.759
REMARK  Name = COc1ccc2c3c1OC1=C[C@@H](C(C)(C)O)C=C4[C@@H](C2)N(C)CC[C@]143         ZINC000096316430
REMARK  7 active torsions:
REMARK  status: ('A' for Active; 'I' for Inactive)
REMARK    1  A    between atoms: C_1  and  O_2
REMARK    2  A    between atoms: O_2  and  C_3
REMARK    3  A    between atoms: C_12  and  C_13
REMARK    4  A    between atoms: C_13  and  C_14
REMARK    5  A    between atoms: C_13  and  C_15
REMARK    6  A    between atoms: C_13  and  O_16
REMARK    7  A    between atoms: N_21  and  C_22
REMARK                            x       y       z     vdW  Elec       q    Type
REMARK                         _______ _______ _______ _____ _____    ______ ____
ROOT
ATOM      1  C   UNL     1       3.143   0.817 -22.701  0.00  0.00    +0.162 A 
ATOM      2  C   UNL     1       3.515   1.185 -23.856  0.00  0.00    +0.050 A 
ATOM      3  C   UNL     1       2.760   1.879 -24.577  0.00  0.00    +0.008 A 
ATOM      4  C   UNL     1       1.626   2.211 -24.151  0.00  0.00    -0.034 A 
ATOM      5  C   UNL     1       1.235   1.856 -23.004  0.00  0.00    +0.020 A 
ATOM      6  C   UNL     1       0.103   2.191 -22.585  0.00  0.00    +0.088 C 
ATOM      7  C   UNL     1      -1.162   2.510 -21.999  0.00  0.00    +0.075 C 
ATOM      8  C   UNL     1      -2.038   3.293 -22.789  0.00  0.00    +0.133 C 
ATOM      9  N   UNL     1      -1.589   3.685 -24.071  0.00  0.00    +0.239 N 
ATOM     10  H   UNL     1      -2.180   4.249 -24.681  0.00  0.00    +0.204 HD
ATOM     11  C   UNL     1      -2.302   4.379 -24.834  0.00  0.00    +0.191 C 
ATOM     12  C   UNL     1      -0.282   3.253 -24.458  0.00  0.00    +0.096 C 
ATOM     13  C   UNL     1      -0.657   2.886 -23.304  0.00  0.00    -0.007 C 
ATOM     14  C   UNL     1      -1.802   3.223 -22.876  0.00  0.00    -0.011 C 
ATOM     15  C   UNL     1      -2.178   2.862 -21.733  0.00  0.00    +0.069 C 
ATOM     16  C   UNL     1      -1.416   2.160 -21.002  0.00  0.00    +0.026 C 
ATOM     17  C   UNL     1      -0.284   1.826 -21.422  0.00  0.00    +0.117 C 
ATOM     18  O   UNL     1       1.007   1.089 -21.144  0.00  0.00    -0.455 OA
ATOM     19  C   UNL     1       0.851   2.919 -24.882  0.00  0.00    +0.094 C 
ATOM     20  C   UNL     1       1.996   1.155 -22.274  0.00  0.00    +0.174 A 
ENDROOT
BRANCH  15  21
ATOM     21  C   UNL     1      -3.314   3.198 -21.313  0.00  0.00    +0.070 C 
ATOM     22  C   UNL     1      -3.417   4.019 -20.369  0.00  0.00    +0.042 C 
ATOM     23  C   UNL     1      -4.565   3.112 -21.373  0.00  0.00    +0.042 C 
BRANCH  21  24
ATOM     24  O   UNL     1      -3.852   2.444 -22.160  0.00  0.00    -0.388 OA
ATOM     25  H   UNL     1      -3.164   2.003 -22.682  0.00  0.00    +0.210 HD
ENDBRANCH  21  24
ENDBRANCH  15  21
BRANCH   1  27
ATOM     26  C   UNL     1       4.510   0.646 -21.019  0.00  0.00    +0.277 C 
ATOM     27  O   UNL     1       3.903   0.122 -21.983  0.00  0.00    -0.491 OA
ENDBRANCH   1  27
TORSDOF 3
ENDMDL
MODEL 4
REMARK VINA RESULT:   -10.111      1.700      2.766
REMARK INTER + INTRA:          -8.125
REMARK INTER:                 -11.819
REMARK INTRA:                   3.694
REMARK UNBOUND:                 3.759
REMARK  Name = COc1ccc2c3c1OC1=C[C@@H](C(C)(C)O)C=C4[C@@H](C2)N(C)CC[C@]143         ZINC000096316430
REMARK  7 active torsions:
REMARK  status: ('A' for Active; 'I' for Inactive)
REMARK    1  A    between atoms: C_1  and  O_2
REMARK    2  A    between atoms: O_2  and  C_3
REMARK    3  A    between atoms: C_12  and  C_13
REMARK    4  A    between atoms: C_13  and  C_14
REMARK    5  A    between atoms: C_13  and  C_15
REMARK    6  A    between atoms: C_13  and  O_16
REMARK    7  A    between atoms: N_21  and  C_22
REMARK                            x       y       z     vdW  Elec       q    Type
REMARK                         _______ _______ _______ _____ _____    ______ ____
ROOT
ATOM      1  C   UNL     1      -4.333   3.714 -23.887  0.00  0.00    +0.162 A 
ATOM      2  C   UNL     1      -4.812   3.433 -22.747  0.00  0.00    +0.050 A 
ATOM      3  C   UNL     1      -4.073   2.983 -21.840  0.00  0.00    +0.008 A 
ATOM      4  C   UNL     1      -2.849   2.808 -22.063  0.00  0.00    -0.034 A 
ATOM      5  C   UNL     1      -2.351   3.080 -23.192  0.00  0.00    +0.020 A 
ATOM      6  C   UNL     1      -1.130   2.904 -23.408  0.00  0.00    +0.088 C 
ATOM      7  C   UNL     1       0.243   2.746 -23.774  0.00  0.00    +0.075 C 
ATOM      8  C   UNL     1       1.103   2.239 -22.771  0.00  0.00    +0.133 C 
ATOM      9  N   UNL     1       0.534   1.938 -21.511  0.00  0.00    +0.239 N 
ATOM     10  H   UNL     1       1.109   1.570 -20.753  0.00  0.00    +0.204 HD
ATOM     11  C   UNL     1       1.226   1.485 -20.569  0.00  0.00    +0.191 C 
ATOM     12  C   UNL     1      -0.868   2.173 -21.363  0.00  0.00    +0.096 C 
ATOM     13  C   UNL     1      -0.386   2.453 -22.502  0.00  0.00    -0.007 C 
ATOM     14  C   UNL     1       0.849   2.276 -22.726  0.00  0.00    -0.011 C 
ATOM     15  C   UNL     1       1.331   2.551 -23.852  0.00  0.00    +0.069 C 
ATOM     16  C   UNL     1       0.586   3.006 -24.771  0.00  0.00    +0.026 C 
ATOM     17  C   UNL     1      -0.636   3.183 -24.554  0.00  0.00    +0.117 C 
ATOM     18  O   UNL     1      -1.971   3.635 -25.102  0.00  0.00    -0.455 OA
ATOM     19  C   UNL     1      -2.090   2.349 -21.142  0.00  0.00    +0.094 C 
ATOM     20  C   UNL     1      -3.096   3.535 -24.109  0.00  0.00    +0.174 A 
ENDROOT
BRANCH  15  21
ATOM     21  C   UNL     1       2.556   2.374 -24.070  0.00  0.00    +0.070 C 
ATOM     22  C   UNL     1       3.385   3.261 -23.752  0.00  0.00    +0.042 C 
ATOM     23  C   UNL     1       3.491   1.657 -24.504  0.00  0.00    +0.042 C 
BRANCH  21  24
ATOM     24  O   UNL     1       2.307   1.247 -24.563  0.00  0.00    -0.388 OA
ATOM     25  H   UNL     1       3.116   0.878 -24.951  0.00  0.00    +0.210 HD
ENDBRANCH  21  24
ENDBRANCH  15  21
BRANCH   1  27
ATOM     26  C   UNL     1      -5.240   3.516 -25.854  0.00  0.00    +0.277 C 
ATOM     27  O   UNL     1      -5.078   4.164 -24.792  0.00  0.00    -0.491 OA
ENDBRANCH   1  27
TORSDOF 3
ENDMDL
MODEL 5
REMARK VINA RESULT:    -9.828      2.419      3.656
REMARK INTER + INTRA:          -7.792
REMARK INTER:                 -11.500
REMARK INTRA:                   3.708
REMARK UNBOUND:                 3.759
REMARK  Name = COc1ccc2c3c1OC1=C[C@@H](C(C)(C)O)C=C4[C@@H](C2)N(C)CC[C@]143         ZINC000096316430
REMARK  7 active torsions:
REMARK  status: ('A' for Active; 'I' for Inactive)
REMARK    1  A    between atoms: C_1  and  O_2
REMARK    2  A    between atoms: O_2  and  C_3
REMARK    3  A    between atoms: C_12  and  C_13
REMARK    4  A    between atoms: C_13  and  C_14
REMARK    5  A    between atoms: C_13  and  C_15
REMARK    6  A    between atoms: C_13  and  O_16
REMARK    7  A    between atoms: N_21  and  C_22
REMARK                            x       y       z     vdW  Elec       q    Type
REMARK                         _______ _______ _______ _____ _____    ______ ____
ROOT
ATOM      1  C   UNL     1      -2.094   3.977 -23.712  0.00  0.00    +0.162 A 
ATOM      2  C   UNL     1      -2.644   3.065 -23.024  0.00  0.00    +0.050 A 
ATOM      3  C   UNL     1      -1.946   2.252 -22.372  0.00  0.00    +0.008 A 
ATOM      4  C   UNL     1      -0.693   2.343 -22.401  0.00  0.00    -0.034 A 
ATOM      5  C   UNL     1      -0.125   3.243 -23.080  0.00  0.00    +0.020 A 
ATOM      6  C   UNL     1       1.124   3.329 -23.105  0.00  0.00    +0.088 C 
ATOM      7  C   UNL     1       2.536   3.527 -23.212  0.00  0.00    +0.075 C 
ATOM      8  C   UNL     1       3.351   2.625 -22.487  0.00  0.00    +0.133 C 
ATOM      9  N   UNL     1       2.703   1.621 -21.731  0.00  0.00    +0.239 N 
ATOM     10  H   UNL     1       3.243   0.945 -21.190  0.00  0.00    +0.204 HD
ATOM     11  C   UNL     1       3.351   0.782 -21.060  0.00  0.00    +0.191 C 
ATOM     12  C   UNL     1       1.274   1.606 -21.766  0.00  0.00    +0.096 C 
ATOM     13  C   UNL     1       1.827   2.517 -22.454  0.00  0.00    -0.007 C 
ATOM     14  C   UNL     1       3.090   2.607 -22.482  0.00  0.00    -0.011 C 
ATOM     15  C   UNL     1       3.643   3.508 -23.161  0.00  0.00    +0.069 C 
ATOM     16  C   UNL     1       2.940   4.331 -23.822  0.00  0.00    +0.026 C 
ATOM     17  C   UNL     1       1.690   4.245 -23.796  0.00  0.00    +0.117 C 
ATOM     18  O   UNL     1       0.368   4.804 -24.273  0.00  0.00    -0.455 OA
ATOM     19  C   UNL     1       0.023   1.517 -21.738  0.00  0.00    +0.094 C 
ATOM     20  C   UNL     1      -0.828   4.065 -23.739  0.00  0.00    +0.174 A 
ENDROOT
BRANCH  15  21
ATOM     21  C   UNL     1       4.896   3.593 -23.187  0.00  0.00    +0.070 C 
ATOM     22  C   UNL     1       5.480   4.473 -22.507  0.00  0.00    +0.042 C 
ATOM     23  C   UNL     1       6.006   3.184 -23.609  0.00  0.00    +0.042 C 
BRANCH  21  24
ATOM     24  O   UNL     1       4.948   2.628 -23.987  0.00  0.00    -0.388 OA
ATOM     25  H   UNL     1       4.519   2.876 -24.820  0.00  0.00    +0.210 HD
ENDBRANCH  21  24
ENDBRANCH  15  21
BRANCH   1  27
ATOM     26  C   UNL     1      -3.698   4.366 -25.128  0.00  0.00    +0.277 C 
ATOM     27  O   UNL     1      -2.797   4.787 -24.363  0.00  0.00    -0.491 OA
ENDBRANCH   1  27
TORSDOF 3
ENDMDL
MODEL 6
REMARK VINA RESULT:    -9.812      1.720      2.438
REMARK INTER + INTRA:          -7.773
REMARK INTER:                 -11.853
REMARK INTRA:                   4.080
REMARK UNBOUND:                 3.759
REMARK  Name = COc1ccc2c3c1OC1=C[C@@H](C(C)(C)O)C=C4[C@@H](C2)N(C)CC[C@]143         ZINC000096316430
REMARK  7 active torsions:
REMARK  status: ('A' for Active; 'I' for Inactive)
REMARK    1  A    between atoms: C_1  and  O_2
REMARK    2  A    between atoms: O_2  and  C_3
REMARK    3  A    between atoms: C_12  and  C_13
REMARK    4  A    between atoms: C_13  and  C_14
REMARK    5  A    between atoms: C_13  and  C_15
REMARK    6  A    between atoms: C_13  and  O_16
REMARK    7  A    between atoms: N_21  and  C_22
REMARK                            x       y       z     vdW  Elec       q    Type
REMARK                         _______ _______ _______ _____ _____    ______ ____
ROOT
ATOM      1  C   UNL     1      -2.533   3.220 -23.032  0.00  0.00    +0.162 A 
ATOM      2  C   UNL     1      -2.485   4.357 -23.591  0.00  0.00    +0.050 A 
ATOM      3  C   UNL     1      -1.382   4.915 -23.804  0.00  0.00    +0.008 A 
ATOM      4  C   UNL     1      -0.318   4.343 -23.460  0.00  0.00    -0.034 A 
ATOM      5  C   UNL     1      -0.343   3.210 -22.902  0.00  0.00    +0.020 A 
ATOM      6  C   UNL     1       0.722   2.645 -22.562  0.00  0.00    +0.088 C 
ATOM      7  C   UNL     1       1.865   1.903 -22.130  0.00  0.00    +0.075 C 
ATOM      8  C   UNL     1       3.125   2.507 -22.357  0.00  0.00    +0.133 C 
ATOM      9  N   UNL     1       3.140   3.775 -22.983  0.00  0.00    +0.239 N 
ATOM     10  H   UNL     1       4.020   4.254 -23.170  0.00  0.00    +0.204 HD
ATOM     11  C   UNL     1       4.213   4.378 -23.220  0.00  0.00    +0.191 C 
ATOM     12  C   UNL     1       1.873   4.337 -23.333  0.00  0.00    +0.096 C 
ATOM     13  C   UNL     1       1.828   3.200 -22.773  0.00  0.00    -0.007 C 
ATOM     14  C   UNL     1       2.903   2.624 -22.428  0.00  0.00    -0.011 C 
ATOM     15  C   UNL     1       2.864   1.498 -21.873  0.00  0.00    +0.069 C 
ATOM     16  C   UNL     1       1.750   0.932 -21.656  0.00  0.00    +0.026 C 
ATOM     17  C   UNL     1       0.685   1.498 -21.997  0.00  0.00    +0.117 C 
ATOM     18  O   UNL     1      -0.824   1.436 -22.052  0.00  0.00    -0.455 OA
ATOM     19  C   UNL     1       0.809   4.907 -23.675  0.00  0.00    +0.094 C 
ATOM     20  C   UNL     1      -1.455   2.645 -22.686  0.00  0.00    +0.174 A 
ENDROOT
BRANCH  15  21
ATOM     21  C   UNL     1       3.932   0.931 -21.532  0.00  0.00    +0.070 C 
ATOM     22  C   UNL     1       4.856   0.775 -22.367  0.00  0.00    +0.042 C 
ATOM     23  C   UNL     1       4.631   0.365 -20.655  0.00  0.00    +0.042 C 
BRANCH  21  24
ATOM     24  O   UNL     1       3.483   0.781 -20.369  0.00  0.00    -0.388 OA
ATOM     25  H   UNL     1       3.741  -0.091 -20.033  0.00  0.00    +0.210 HD
ENDBRANCH  21  24
ENDBRANCH  15  21
BRANCH   1  27
ATOM     26  C   UNL     1      -4.628   3.352 -22.466  0.00  0.00    +0.277 C 
ATOM     27  O   UNL     1      -3.639   2.666 -22.821  0.00  0.00    -0.491 OA
ENDBRANCH   1  27
TORSDOF 3
ENDMDL
MODEL 7
REMARK VINA RESULT:    -9.210      2.311      6.442
REMARK INTER + INTRA:          -7.066
REMARK INTER:                 -10.802
REMARK INTRA:                   3.737
REMARK UNBOUND:                 3.759
REMARK  Name = COc1ccc2c3c1OC1=C[C@@H](C(C)(C)O)C=C4[C@@H](C2)N(C)CC[C@]143         ZINC000096316430
REMARK  7 active torsions:
REMARK  status: ('A' for Active; 'I' for Inactive)
REMARK    1  A    between atoms: C_1  and  O_2
REMARK    2  A    between atoms: O_2  and  C_3
REMARK    3  A    between atoms: C_12  and  C_13
REMARK    4  A    between atoms: C_13  and  C_14
REMARK    5  A    between atoms: C_13  and  C_15
REMARK    6  A    between atoms: C_13  and  O_16
REMARK    7  A    between atoms: N_21  and  C_22
REMARK                            x       y       z     vdW  Elec       q    Type
REMARK                         _______ _______ _______ _____ _____    ______ ____
ROOT
ATOM      1  C   UNL     1       4.881   3.352 -22.915  0.00  0.00    +0.162 A 
ATOM      2  C   UNL     1       5.119   2.602 -21.920  0.00  0.00    +0.050 A 
ATOM      3  C   UNL     1       4.186   1.996 -21.343  0.00  0.00    +0.008 A 
ATOM      4  C   UNL     1       3.006   2.132 -21.754  0.00  0.00    -0.034 A 
ATOM      5  C   UNL     1       2.747   2.874 -22.742  0.00  0.00    +0.020 A 
ATOM      6  C   UNL     1       1.569   3.006 -23.147  0.00  0.00    +0.088 C 
ATOM      7  C   UNL     1       0.270   3.235 -23.699  0.00  0.00    +0.075 C 
ATOM      8  C   UNL     1      -0.805   2.564 -23.069  0.00  0.00    +0.133 C 
ATOM      9  N   UNL     1      -0.502   1.736 -21.963  0.00  0.00    +0.239 N 
ATOM     10  H   UNL     1      -1.238   1.230 -21.472  0.00  0.00    +0.204 HD
ATOM     11  C   UNL     1      -1.395   1.106 -21.348  0.00  0.00    +0.191 C 
ATOM     12  C   UNL     1       0.872   1.651 -21.577  0.00  0.00    +0.096 C 
ATOM     13  C   UNL     1       0.631   2.400 -22.572  0.00  0.00    -0.007 C 
ATOM     14  C   UNL     1      -0.559   2.537 -22.985  0.00  0.00    -0.011 C 
ATOM     15  C   UNL     1      -0.804   3.277 -23.969  0.00  0.00    +0.069 C 
ATOM     16  C   UNL     1       0.138   3.892 -24.554  0.00  0.00    +0.026 C 
ATOM     17  C   UNL     1       1.317   3.760 -24.149  0.00  0.00    +0.117 C 
ATOM     18  O   UNL     1       2.770   4.134 -24.328  0.00  0.00    -0.455 OA
ATOM     19  C   UNL     1       2.051   1.516 -21.169  0.00  0.00    +0.094 C 
ATOM     20  C   UNL     1       3.688   3.487 -23.326  0.00  0.00    +0.174 A 
ENDROOT
BRANCH  15  21
ATOM     21  C   UNL     1      -1.986   3.410 -24.375  0.00  0.00    +0.070 C 
ATOM     22  C   UNL     1      -2.615   4.471 -24.142  0.00  0.00    +0.042 C 
ATOM     23  C   UNL     1      -2.986   2.950 -24.978  0.00  0.00    +0.042 C 
BRANCH  21  24
ATOM     24  O   UNL     1      -1.943   2.261 -24.878  0.00  0.00    -0.388 OA
ATOM     25  H   UNL     1      -2.714   2.131 -25.453  0.00  0.00    +0.210 HD
ENDBRANCH  21  24
ENDBRANCH  15  21
BRANCH   1  27
ATOM     26  C   UNL     1       6.960   3.439 -23.544  0.00  0.00    +0.277 C 
ATOM     27  O   UNL     1       5.819   3.957 -23.489  0.00  0.00    -0.491 OA
ENDBRANCH   1  27
TORSDOF 3
ENDMDL
MODEL 8
REMARK VINA RESULT:    -8.598      3.989      7.108
REMARK INTER + INTRA:          -6.346
REMARK INTER:                 -10.029
REMARK INTRA:                   3.683
REMARK UNBOUND:                 3.759
REMARK  Name = COc1ccc2c3c1OC1=C[C@@H](C(C)(C)O)C=C4[C@@H](C2)N(C)CC[C@]143         ZINC000096316430
REMARK  7 active torsions:
REMARK  status: ('A' for Active; 'I' for Inactive)
REMARK    1  A    between atoms: C_1  and  O_2
REMARK    2  A    between atoms: O_2  and  C_3
REMARK    3  A    between atoms: C_12  and  C_13
REMARK    4  A    between atoms: C_13  and  C_14
REMARK    5  A    between atoms: C_13  and  C_15
REMARK    6  A    between atoms: C_13  and  O_16
REMARK    7  A    between atoms: N_21  and  C_22
REMARK                            x       y       z     vdW  Elec       q    Type
REMARK                         _______ _______ _______ _____ _____    ______ ____
ROOT
ATOM      1  C   UNL     1       6.066   6.513 -22.177  0.00  0.00    +0.162 A 
ATOM      2  C   UNL     1       7.053   5.736 -22.344  0.00  0.00    +0.050 A 
ATOM      3  C   UNL     1       6.884   4.581 -22.803  0.00  0.00    +0.008 A 
ATOM      4  C   UNL     1       5.726   4.193 -23.099  0.00  0.00    -0.034 A 
ATOM      5  C   UNL     1       4.729   4.950 -22.941  0.00  0.00    +0.020 A 
ATOM      6  C   UNL     1       3.577   4.557 -23.238  0.00  0.00    +0.088 C 
ATOM      7  C   UNL     1       2.220   4.223 -23.540  0.00  0.00    +0.075 C 
ATOM      8  C   UNL     1       1.996   2.926 -24.060  0.00  0.00    +0.133 C 
ATOM      9  N   UNL     1       3.121   2.087 -24.232  0.00  0.00    +0.239 N 
ATOM     10  H   UNL     1       3.016   1.143 -24.604  0.00  0.00    +0.204 HD
ATOM     11  C   UNL     1       3.010   0.923 -24.687  0.00  0.00    +0.191 C 
ATOM     12  C   UNL     1       4.392   2.626 -23.864  0.00  0.00    +0.096 C 
ATOM     13  C   UNL     1       3.402   3.402 -23.698  0.00  0.00    -0.007 C 
ATOM     14  C   UNL     1       2.236   3.008 -23.998  0.00  0.00    -0.011 C 
ATOM     15  C   UNL     1       1.252   3.772 -23.835  0.00  0.00    +0.069 C 
ATOM     16  C   UNL     1       1.421   4.940 -23.371  0.00  0.00    +0.026 C 
ATOM     17  C   UNL     1       2.573   5.333 -23.074  0.00  0.00    +0.117 C 
ATOM     18  O   UNL     1       3.434   6.455 -22.538  0.00  0.00    -0.455 OA
ATOM     19  C   UNL     1       5.547   3.016 -23.568  0.00  0.00    +0.094 C 
ATOM     20  C   UNL     1       4.898   6.116 -22.477  0.00  0.00    +0.174 A 
ENDROOT
BRANCH  15  21
ATOM     21  C   UNL     1       0.097   3.378 -24.134  0.00  0.00    +0.070 C 
ATOM     22  C   UNL     1      -0.409   3.692 -25.238  0.00  0.00    +0.042 C 
ATOM     23  C   UNL     1      -0.944   2.741 -23.839  0.00  0.00    +0.042 C 
BRANCH  21  24
ATOM     24  O   UNL     1       0.012   2.786 -23.030  0.00  0.00    -0.388 OA
ATOM     25  H   UNL     1       0.163   1.837 -23.160  0.00  0.00    +0.210 HD
ENDBRANCH  21  24
ENDBRANCH  15  21
BRANCH   1  27
ATOM     26  C   UNL     1       5.828   7.956 -20.568  0.00  0.00    +0.277 C 
ATOM     27  O   UNL     1       6.241   7.668 -21.717  0.00  0.00    -0.491 OA
ENDBRANCH   1  27
TORSDOF 3
ENDMDL
MODEL 9
REMARK VINA RESULT:    -8.297      3.349      4.624
REMARK INTER + INTRA:          -5.992
REMARK INTER:                  -9.752
REMARK INTRA:                   3.759
REMARK UNBOUND:                 3.759
REMARK  Name = COc1ccc2c3c1OC1=C[C@@H](C(C)(C)O)C=C4[C@@H](C2)N(C)CC[C@]143         ZINC000096316430
REMARK  7 active torsions:
REMARK  status: ('A' for Active; 'I' for Inactive)
REMARK    1  A    between atoms: C_1  and  O_2
REMARK    2  A    between atoms: O_2  and  C_3
REMARK    3  A    between atoms: C_12  and  C_13
REMARK    4  A    between atoms: C_13  and  C_14
REMARK    5  A    between atoms: C_13  and  C_15
REMARK    6  A    between atoms: C_13  and  O_16
REMARK    7  A    between atoms: N_21  and  C_22
REMARK                            x       y       z     vdW  Elec       q    Type
REMARK                         _______ _______ _______ _____ _____    ______ ____
ROOT
ATOM      1  C   UNL     1      -0.642   3.015 -24.208  0.00  0.00    +0.162 A 
ATOM      2  C   UNL     1      -1.150   4.145 -23.936  0.00  0.00    +0.050 A 
ATOM      3  C   UNL     1      -0.426   5.093 -23.550  0.00  0.00    +0.008 A 
ATOM      4  C   UNL     1       0.813   4.921 -23.431  0.00  0.00    -0.034 A 
ATOM      5  C   UNL     1       1.341   3.805 -23.695  0.00  0.00    +0.020 A 
ATOM      6  C   UNL     1       2.576   3.640 -23.574  0.00  0.00    +0.088 C 
ATOM      7  C   UNL     1       3.969   3.331 -23.475  0.00  0.00    +0.075 C 
ATOM      8  C   UNL     1       4.813   4.381 -23.041  0.00  0.00    +0.133 C 
ATOM      9  N   UNL     1       4.211   5.627 -22.748  0.00  0.00    +0.239 N 
ATOM     10  H   UNL     1       4.773   6.417 -22.431  0.00  0.00    +0.204 HD
ATOM     11  C   UNL     1       4.886   6.608 -22.358  0.00  0.00    +0.191 C 
ATOM     12  C   UNL     1       2.794   5.715 -22.917  0.00  0.00    +0.096 C 
ATOM     13  C   UNL     1       3.306   4.586 -23.187  0.00  0.00    -0.007 C 
ATOM     14  C   UNL     1       4.555   4.415 -23.067  0.00  0.00    -0.011 C 
ATOM     15  C   UNL     1       5.067   3.300 -23.333  0.00  0.00    +0.069 C 
ATOM     16  C   UNL     1       4.337   2.340 -23.724  0.00  0.00    +0.026 C 
ATOM     17  C   UNL     1       3.101   2.505 -23.845  0.00  0.00    +0.117 C 
ATOM     18  O   UNL     1       1.768   1.894 -24.214  0.00  0.00    -0.455 OA
ATOM     19  C   UNL     1       1.557   5.884 -23.037  0.00  0.00    +0.094 C 
ATOM     20  C   UNL     1       0.611   2.847 -24.086  0.00  0.00    +0.174 A 
ENDROOT
BRANCH  15  21
ATOM     21  C   UNL     1       6.307   3.134 -23.212  0.00  0.00    +0.070 C 
ATOM     22  C   UNL     1       6.828   3.101 -22.071  0.00  0.00    +0.042 C 
ATOM     23  C   UNL     1       7.437   2.963 -23.732  0.00  0.00    +0.042 C 
BRANCH  21  24
ATOM     24  O   UNL     1       6.423   3.078 -24.460  0.00  0.00    -0.388 OA
ATOM     25  H   UNL     1       5.840   3.736 -24.869  0.00  0.00    +0.210 HD
ENDBRANCH  21  24
ENDBRANCH  15  21
BRANCH   1  27
ATOM     26  C   UNL     1      -2.605   2.246 -24.736  0.00  0.00    +0.277 C 
ATOM     27  O   UNL     1      -1.371   2.070 -24.594  0.00  0.00    -0.491 OA
ENDBRANCH   1  27
TORSDOF 3
ENDMDL
