MODEL 1
REMARK VINA RESULT:   -10.555      0.000      0.000
REMARK INTER + INTRA:         -10.821
REMARK INTER:                 -11.826
REMARK INTRA:                   1.006
REMARK UNBOUND:                 0.968
REMARK  Name = COC1=C[C@@]2(C)Oc3c(OC)ccc4c3[C@]23CCN(C)[C@H](C4)C3=C1              ZINC000100393711
REMARK  6 active torsions:
REMARK  status: ('A' for Active; 'I' for Inactive)
REMARK    1  A    between atoms: C_1  and  O_2
REMARK    2  A    between atoms: O_2  and  C_3
REMARK    3  A    between atoms: C_5  and  C_6
REMARK    4  A    between atoms: C_9  and  O_10
REMARK    5  A    between atoms: O_10  and  C_11
REMARK    6  A    between atoms: N_19  and  C_20
REMARK                            x       y       z     vdW  Elec       q    Type
REMARK                         _______ _______ _______ _____ _____    ______ ____
ROOT
ATOM      1  C   UNL     1       0.579   2.287 -22.518  0.00  0.00    +0.120 C 
ATOM      2  C   UNL     1      -0.370   2.268 -21.679  0.00  0.00    +0.066 C 
ATOM      3  C   UNL     1      -1.521   2.611 -22.032  0.00  0.00    +0.143 C 
ATOM      4  O   UNL     1      -2.964   2.814 -21.628  0.00  0.00    -0.477 OA
ATOM      5  C   UNL     1      -3.838   3.302 -22.750  0.00  0.00    +0.168 A 
ATOM      6  C   UNL     1      -5.004   3.650 -23.109  0.00  0.00    +0.162 A 
ATOM      7  C   UNL     1      -5.207   4.013 -24.306  0.00  0.00    +0.050 A 
ATOM      8  C   UNL     1      -4.266   4.030 -25.133  0.00  0.00    +0.008 A 
ATOM      9  C   UNL     1      -3.112   3.686 -24.776  0.00  0.00    -0.034 A 
ATOM     10  C   UNL     1      -2.152   3.702 -25.614  0.00  0.00    +0.094 C 
ATOM     11  C   UNL     1      -1.002   3.358 -25.256  0.00  0.00    +0.097 C 
ATOM     12  C   UNL     1      -0.796   2.995 -24.060  0.00  0.00    -0.003 C 
ATOM     13  N   UNL     1       0.342   2.987 -24.953  0.00  0.00    +0.239 N 
ATOM     14  H   UNL     1       1.085   3.013 -25.652  0.00  0.00    +0.204 HD
ATOM     15  C   UNL     1       1.244   3.024 -25.821  0.00  0.00    +0.191 C 
ATOM     16  C   UNL     1       0.607   2.577 -23.628  0.00  0.00    +0.133 C 
ATOM     17  C   UNL     1      -0.474   2.567 -22.717  0.00  0.00    +0.071 C 
ATOM     18  C   UNL     1      -2.890   3.321 -23.588  0.00  0.00    +0.016 A 
ATOM     19  C   UNL     1      -1.598   2.304 -20.819  0.00  0.00    +0.062 C 
ATOM     20  C   UNL     1      -1.738   2.978 -23.234  0.00  0.00    +0.074 C 
ATOM     21  C   UNL     1       0.368   2.648 -23.700  0.00  0.00    +0.051 C 
ENDROOT
BRANCH   1  23
ATOM     22  C   UNL     1       2.158   0.799 -22.443  0.00  0.00    +0.277 C 
ATOM     23  O   UNL     1       1.731   1.944 -22.166  0.00  0.00    -0.495 OA
ENDBRANCH   1  23
BRANCH   6  24
ATOM     24  O   UNL     1      -5.948   3.634 -22.285  0.00  0.00    -0.491 OA
ATOM     25  C   UNL     1      -6.279   2.561 -21.729  0.00  0.00    +0.277 C 
ENDBRANCH   6  24
TORSDOF 2
ENDMDL
MODEL 2
REMARK VINA RESULT:   -10.507      1.761      5.669
REMARK INTER + INTRA:         -10.768
REMARK INTER:                 -11.703
REMARK INTRA:                   0.936
REMARK UNBOUND:                 0.968
REMARK  Name = COC1=C[C@@]2(C)Oc3c(OC)ccc4c3[C@]23CCN(C)[C@H](C4)C3=C1              ZINC000100393711
REMARK  6 active torsions:
REMARK  status: ('A' for Active; 'I' for Inactive)
REMARK    1  A    between atoms: C_1  and  O_2
REMARK    2  A    between atoms: O_2  and  C_3
REMARK    3  A    between atoms: C_5  and  C_6
REMARK    4  A    between atoms: C_9  and  O_10
REMARK    5  A    between atoms: O_10  and  C_11
REMARK    6  A    between atoms: N_19  and  C_20
REMARK                            x       y       z     vdW  Elec       q    Type
REMARK                         _______ _______ _______ _____ _____    ______ ____
ROOT
ATOM      1  C   UNL     1      -3.174   3.794 -24.646  0.00  0.00    +0.120 C 
ATOM      2  C   UNL     1      -2.042   3.760 -25.213  0.00  0.00    +0.066 C 
ATOM      3  C   UNL     1      -1.053   3.299 -24.599  0.00  0.00    +0.143 C 
ATOM      4  O   UNL     1       0.425   2.980 -24.634  0.00  0.00    -0.477 OA
ATOM      5  C   UNL     1       0.937   2.367 -23.360  0.00  0.00    +0.168 A 
ATOM      6  C   UNL     1       1.939   1.899 -22.738  0.00  0.00    +0.162 A 
ATOM      7  C   UNL     1       1.794   1.470 -21.555  0.00  0.00    +0.050 A 
ATOM      8  C   UNL     1       0.672   1.505 -20.998  0.00  0.00    +0.008 A 
ATOM      9  C   UNL     1      -0.319   1.968 -21.615  0.00  0.00    -0.034 A 
ATOM     10  C   UNL     1      -1.461   2.006 -21.053  0.00  0.00    +0.094 C 
ATOM     11  C   UNL     1      -2.448   2.469 -21.669  0.00  0.00    +0.097 C 
ATOM     12  C   UNL     1      -2.307   2.899 -22.853  0.00  0.00    -0.003 C 
ATOM     13  N   UNL     1      -3.634   2.974 -22.281  0.00  0.00    +0.239 N 
ATOM     14  H   UNL     1      -4.533   2.988 -21.799  0.00  0.00    +0.204 HD
ATOM     15  C   UNL     1      -4.731   2.985 -21.677  0.00  0.00    +0.191 C 
ATOM     16  C   UNL     1      -3.512   3.462 -23.601  0.00  0.00    +0.133 C 
ATOM     17  C   UNL     1      -2.235   3.410 -24.203  0.00  0.00    +0.071 C 
ATOM     18  C   UNL     1      -0.194   2.401 -22.794  0.00  0.00    +0.016 A 
ATOM     19  C   UNL     1      -0.639   3.647 -25.731  0.00  0.00    +0.062 C 
ATOM     20  C   UNL     1      -1.185   2.863 -23.408  0.00  0.00    +0.074 C 
ATOM     21  C   UNL     1      -3.307   3.367 -23.475  0.00  0.00    +0.051 C 
ENDROOT
BRANCH   1  23
ATOM     22  C   UNL     1      -5.002   3.479 -25.774  0.00  0.00    +0.277 C 
ATOM     23  O   UNL     1      -4.165   4.256 -25.258  0.00  0.00    -0.495 OA
ENDBRANCH   1  23
BRANCH   6  24
ATOM     24  O   UNL     1       3.063   1.862 -23.291  0.00  0.00    -0.491 OA
ATOM     25  C   UNL     1       3.311   0.986 -24.151  0.00  0.00    +0.277 C 
ENDBRANCH   6  24
TORSDOF 2
ENDMDL
MODEL 3
REMARK VINA RESULT:   -10.399      1.254      4.914
REMARK INTER + INTRA:         -10.647
REMARK INTER:                 -11.614
REMARK INTRA:                   0.967
REMARK UNBOUND:                 0.968
REMARK  Name = COC1=C[C@@]2(C)Oc3c(OC)ccc4c3[C@]23CCN(C)[C@H](C4)C3=C1              ZINC000100393711
REMARK  6 active torsions:
REMARK  status: ('A' for Active; 'I' for Inactive)
REMARK    1  A    between atoms: C_1  and  O_2
REMARK    2  A    between atoms: O_2  and  C_3
REMARK    3  A    between atoms: C_5  and  C_6
REMARK    4  A    between atoms: C_9  and  O_10
REMARK    5  A    between atoms: O_10  and  C_11
REMARK    6  A    between atoms: N_19  and  C_20
REMARK                            x       y       z     vdW  Elec       q    Type
REMARK                         _______ _______ _______ _____ _____    ______ ____
ROOT
ATOM      1  C   UNL     1      -4.457   3.470 -22.436  0.00  0.00    +0.120 C 
ATOM      2  C   UNL     1      -3.548   3.234 -21.585  0.00  0.00    +0.066 C 
ATOM      3  C   UNL     1      -2.359   3.118 -21.960  0.00  0.00    +0.143 C 
ATOM      4  O   UNL     1      -0.922   2.868 -21.561  0.00  0.00    -0.477 OA
ATOM      5  C   UNL     1       0.034   2.885 -22.720  0.00  0.00    +0.168 A 
ATOM      6  C   UNL     1       1.239   2.767 -23.101  0.00  0.00    +0.162 A 
ATOM      7  C   UNL     1       1.520   2.886 -24.330  0.00  0.00    +0.050 A 
ATOM      8  C   UNL     1       0.619   3.119 -25.169  0.00  0.00    +0.008 A 
ATOM      9  C   UNL     1      -0.573   3.235 -24.791  0.00  0.00    -0.034 A 
ATOM     10  C   UNL     1      -1.493   3.472 -25.640  0.00  0.00    +0.094 C 
ATOM     11  C   UNL     1      -2.681   3.588 -25.261  0.00  0.00    +0.097 C 
ATOM     12  C   UNL     1      -2.966   3.469 -24.032  0.00  0.00    -0.003 C 
ATOM     13  N   UNL     1      -4.063   3.737 -24.936  0.00  0.00    +0.239 N 
ATOM     14  H   UNL     1      -4.772   3.927 -25.645  0.00  0.00    +0.204 HD
ATOM     15  C   UNL     1      -4.922   3.970 -25.817  0.00  0.00    +0.191 C 
ATOM     16  C   UNL     1      -4.415   3.611 -23.575  0.00  0.00    +0.133 C 
ATOM     17  C   UNL     1      -3.377   3.348 -22.652  0.00  0.00    +0.071 C 
ATOM     18  C   UNL     1      -0.873   3.120 -23.570  0.00  0.00    +0.016 A 
ATOM     19  C   UNL     1      -2.357   2.958 -20.716  0.00  0.00    +0.062 C 
ATOM     20  C   UNL     1      -2.063   3.236 -23.195  0.00  0.00    +0.074 C 
ATOM     21  C   UNL     1      -4.168   3.586 -23.651  0.00  0.00    +0.051 C 
ENDROOT
BRANCH   1  23
ATOM     22  C   UNL     1      -6.298   2.574 -21.715  0.00  0.00    +0.277 C 
ATOM     23  O   UNL     1      -5.646   3.587 -22.063  0.00  0.00    -0.495 OA
ENDBRANCH   1  23
BRANCH   6  24
ATOM     24  O   UNL     1       2.144   2.534 -22.265  0.00  0.00    -0.491 OA
ATOM     25  C   UNL     1       2.332   1.366 -21.853  0.00  0.00    +0.277 C 
ENDBRANCH   6  24
TORSDOF 2
ENDMDL
MODEL 4
REMARK VINA RESULT:   -10.293      1.889      3.535
REMARK INTER + INTRA:         -10.528
REMARK INTER:                 -11.548
REMARK INTRA:                   1.020
REMARK UNBOUND:                 0.968
REMARK  Name = COC1=C[C@@]2(C)Oc3c(OC)ccc4c3[C@]23CCN(C)[C@H](C4)C3=C1              ZINC000100393711
REMARK  6 active torsions:
REMARK  status: ('A' for Active; 'I' for Inactive)
REMARK    1  A    between atoms: C_1  and  O_2
REMARK    2  A    between atoms: O_2  and  C_3
REMARK    3  A    between atoms: C_5  and  C_6
REMARK    4  A    between atoms: C_9  and  O_10
REMARK    5  A    between atoms: O_10  and  C_11
REMARK    6  A    between atoms: N_19  and  C_20
REMARK                            x       y       z     vdW  Elec       q    Type
REMARK                         _______ _______ _______ _____ _____    ______ ____
ROOT
ATOM      1  C   UNL     1       2.775   2.587 -23.975  0.00  0.00    +0.120 C 
ATOM      2  C   UNL     1       1.934   3.191 -24.706  0.00  0.00    +0.066 C 
ATOM      3  C   UNL     1       0.735   3.254 -24.354  0.00  0.00    +0.143 C 
ATOM      4  O   UNL     1      -0.658   3.746 -24.677  0.00  0.00    -0.477 OA
ATOM      5  C   UNL     1      -1.681   3.378 -23.639  0.00  0.00    +0.168 A 
ATOM      6  C   UNL     1      -2.897   3.442 -23.281  0.00  0.00    +0.162 A 
ATOM      7  C   UNL     1      -3.257   2.899 -22.194  0.00  0.00    +0.050 A 
ATOM      8  C   UNL     1      -2.423   2.303 -21.474  0.00  0.00    +0.008 A 
ATOM      9  C   UNL     1      -1.220   2.241 -21.830  0.00  0.00    -0.034 A 
ATOM     10  C   UNL     1      -0.368   1.636 -21.100  0.00  0.00    +0.094 C 
ATOM     11  C   UNL     1       0.831   1.575 -21.456  0.00  0.00    +0.097 C 
ATOM     12  C   UNL     1       1.194   2.116 -22.543  0.00  0.00    -0.003 C 
ATOM     13  N   UNL     1       2.217   1.448 -21.769  0.00  0.00    +0.239 N 
ATOM     14  H   UNL     1       2.871   0.955 -21.159  0.00  0.00    +0.204 HD
ATOM     15  C   UNL     1       3.007   0.840 -21.011  0.00  0.00    +0.191 C 
ATOM     16  C   UNL     1       2.657   2.040 -22.973  0.00  0.00    +0.133 C 
ATOM     17  C   UNL     1       1.693   2.705 -23.765  0.00  0.00    +0.071 C 
ATOM     18  C   UNL     1      -0.842   2.775 -22.909  0.00  0.00    +0.016 A 
ATOM     19  C   UNL     1       0.816   3.861 -25.448  0.00  0.00    +0.062 C 
ATOM     20  C   UNL     1       0.359   2.712 -23.262  0.00  0.00    +0.074 C 
ATOM     21  C   UNL     1       2.408   2.054 -22.901  0.00  0.00    +0.051 C 
ENDROOT
BRANCH   1  23
ATOM     22  C   UNL     1       4.861   3.078 -23.636  0.00  0.00    +0.277 C 
ATOM     23  O   UNL     1       3.975   2.523 -24.326  0.00  0.00    -0.495 OA
ENDBRANCH   1  23
BRANCH   6  24
ATOM     24  O   UNL     1      -3.735   4.037 -23.999  0.00  0.00    -0.491 OA
ATOM     25  C   UNL     1      -4.960   3.893 -23.783  0.00  0.00    +0.277 C 
ENDBRANCH   6  24
TORSDOF 2
ENDMDL
MODEL 5
REMARK VINA RESULT:    -9.907      1.907      6.039
REMARK INTER + INTRA:         -10.098
REMARK INTER:                 -11.143
REMARK INTRA:                   1.045
REMARK UNBOUND:                 0.968
REMARK  Name = COC1=C[C@@]2(C)Oc3c(OC)ccc4c3[C@]23CCN(C)[C@H](C4)C3=C1              ZINC000100393711
REMARK  6 active torsions:
REMARK  status: ('A' for Active; 'I' for Inactive)
REMARK    1  A    between atoms: C_1  and  O_2
REMARK    2  A    between atoms: O_2  and  C_3
REMARK    3  A    between atoms: C_5  and  C_6
REMARK    4  A    between atoms: C_9  and  O_10
REMARK    5  A    between atoms: O_10  and  C_11
REMARK    6  A    between atoms: N_19  and  C_20
REMARK                            x       y       z     vdW  Elec       q    Type
REMARK                         _______ _______ _______ _____ _____    ______ ____
ROOT
ATOM      1  C   UNL     1      -1.670   3.449 -24.656  0.00  0.00    +0.120 C 
ATOM      2  C   UNL     1      -0.519   3.550 -25.177  0.00  0.00    +0.066 C 
ATOM      3  C   UNL     1       0.486   3.149 -24.547  0.00  0.00    +0.143 C 
ATOM      4  O   UNL     1       1.988   2.969 -24.537  0.00  0.00    -0.477 OA
ATOM      5  C   UNL     1       2.508   2.340 -23.275  0.00  0.00    +0.168 A 
ATOM      6  C   UNL     1       3.527   1.934 -22.636  0.00  0.00    +0.162 A 
ATOM      7  C   UNL     1       3.381   1.431 -21.483  0.00  0.00    +0.050 A 
ATOM      8  C   UNL     1       2.241   1.332 -20.971  0.00  0.00    +0.008 A 
ATOM      9  C   UNL     1       1.234   1.735 -21.605  0.00  0.00    -0.034 A 
ATOM     10  C   UNL     1       0.073   1.638 -21.089  0.00  0.00    +0.094 C 
ATOM     11  C   UNL     1      -0.930   2.040 -21.721  0.00  0.00    +0.097 C 
ATOM     12  C   UNL     1      -0.787   2.543 -22.875  0.00  0.00    -0.003 C 
ATOM     13  N   UNL     1      -2.135   2.466 -22.355  0.00  0.00    +0.239 N 
ATOM     14  H   UNL     1      -3.049   2.371 -21.910  0.00  0.00    +0.204 HD
ATOM     15  C   UNL     1      -3.249   2.343 -21.796  0.00  0.00    +0.191 C 
ATOM     16  C   UNL     1      -2.012   3.032 -23.643  0.00  0.00    +0.133 C 
ATOM     17  C   UNL     1      -0.715   3.129 -24.194  0.00  0.00    +0.071 C 
ATOM     18  C   UNL     1       1.359   2.239 -22.755  0.00  0.00    +0.016 A 
ATOM     19  C   UNL     1       0.906   3.593 -25.642  0.00  0.00    +0.062 C 
ATOM     20  C   UNL     1       0.353   2.641 -23.385  0.00  0.00    +0.074 C 
ATOM     21  C   UNL     1      -1.804   2.949 -23.514  0.00  0.00    +0.051 C 
ENDROOT
BRANCH   1  23
ATOM     22  C   UNL     1      -3.421   4.725 -24.785  0.00  0.00    +0.277 C 
ATOM     23  O   UNL     1      -2.676   3.849 -25.284  0.00  0.00    -0.495 OA
ENDBRANCH   1  23
BRANCH   6  24
ATOM     24  O   UNL     1       4.668   2.030 -23.144  0.00  0.00    -0.491 OA
ATOM     25  C   UNL     1       5.212   3.152 -23.259  0.00  0.00    +0.277 C 
ENDBRANCH   6  24
TORSDOF 2
ENDMDL
MODEL 6
REMARK VINA RESULT:    -9.794      1.449      2.411
REMARK INTER + INTRA:          -9.971
REMARK INTER:                 -11.121
REMARK INTRA:                   1.150
REMARK UNBOUND:                 0.968
REMARK  Name = COC1=C[C@@]2(C)Oc3c(OC)ccc4c3[C@]23CCN(C)[C@H](C4)C3=C1              ZINC000100393711
REMARK  6 active torsions:
REMARK  status: ('A' for Active; 'I' for Inactive)
REMARK    1  A    between atoms: C_1  and  O_2
REMARK    2  A    between atoms: O_2  and  C_3
REMARK    3  A    between atoms: C_5  and  C_6
REMARK    4  A    between atoms: C_9  and  O_10
REMARK    5  A    between atoms: O_10  and  C_11
REMARK    6  A    between atoms: N_19  and  C_20
REMARK                            x       y       z     vdW  Elec       q    Type
REMARK                         _______ _______ _______ _____ _____    ______ ____
ROOT
ATOM      1  C   UNL     1       1.857   1.573 -21.485  0.00  0.00    +0.120 C 
ATOM      2  C   UNL     1       0.627   1.501 -21.189  0.00  0.00    +0.066 C 
ATOM      3  C   UNL     1      -0.233   1.919 -21.997  0.00  0.00    +0.143 C 
ATOM      4  O   UNL     1      -1.701   2.131 -22.290  0.00  0.00    -0.477 OA
ATOM      5  C   UNL     1      -1.961   2.764 -23.629  0.00  0.00    +0.168 A 
ATOM      6  C   UNL     1      -2.832   3.188 -24.448  0.00  0.00    +0.162 A 
ATOM      7  C   UNL     1      -2.460   3.680 -25.555  0.00  0.00    +0.050 A 
ATOM      8  C   UNL     1      -1.243   3.750 -25.844  0.00  0.00    +0.008 A 
ATOM      9  C   UNL     1      -0.382   3.329 -25.031  0.00  0.00    -0.034 A 
ATOM     10  C   UNL     1       0.856   3.398 -25.321  0.00  0.00    +0.094 C 
ATOM     11  C   UNL     1       1.714   2.978 -24.510  0.00  0.00    +0.097 C 
ATOM     12  C   UNL     1       1.346   2.485 -23.402  0.00  0.00    -0.003 C 
ATOM     13  N   UNL     1       2.768   2.530 -23.660  0.00  0.00    +0.239 N 
ATOM     14  H   UNL     1       3.751   2.601 -23.926  0.00  0.00    +0.204 HD
ATOM     15  C   UNL     1       3.970   2.624 -24.000  0.00  0.00    +0.191 C 
ATOM     16  C   UNL     1       2.393   1.975 -22.416  0.00  0.00    +0.133 C 
ATOM     17  C   UNL     1       1.013   1.910 -22.118  0.00  0.00    +0.071 C 
ATOM     18  C   UNL     1      -0.733   2.836 -23.924  0.00  0.00    +0.016 A 
ATOM     19  C   UNL     1      -0.861   1.491 -21.000  0.00  0.00    +0.062 C 
ATOM     20  C   UNL     1       0.128   2.417 -23.115  0.00  0.00    +0.074 C 
ATOM     21  C   UNL     1       2.214   2.061 -22.583  0.00  0.00    +0.051 C 
ENDROOT
BRANCH   1  23
ATOM     22  C   UNL     1       3.619   0.375 -21.068  0.00  0.00    +0.277 C 
ATOM     23  O   UNL     1       2.718   1.154 -20.678  0.00  0.00    -0.495 OA
ENDBRANCH   1  23
BRANCH   6  24
ATOM     24  O   UNL     1      -4.050   3.121 -24.164  0.00  0.00    -0.491 OA
ATOM     25  C   UNL     1      -4.840   4.003 -24.572  0.00  0.00    +0.277 C 
ENDBRANCH   6  24
TORSDOF 2
ENDMDL
MODEL 7
REMARK VINA RESULT:    -9.615      1.414      5.157
REMARK INTER + INTRA:          -9.771
REMARK INTER:                 -10.763
REMARK INTRA:                   0.992
REMARK UNBOUND:                 0.968
REMARK  Name = COC1=C[C@@]2(C)Oc3c(OC)ccc4c3[C@]23CCN(C)[C@H](C4)C3=C1              ZINC000100393711
REMARK  6 active torsions:
REMARK  status: ('A' for Active; 'I' for Inactive)
REMARK    1  A    between atoms: C_1  and  O_2
REMARK    2  A    between atoms: O_2  and  C_3
REMARK    3  A    between atoms: C_5  and  C_6
REMARK    4  A    between atoms: C_9  and  O_10
REMARK    5  A    between atoms: O_10  and  C_11
REMARK    6  A    between atoms: N_19  and  C_20
REMARK                            x       y       z     vdW  Elec       q    Type
REMARK                         _______ _______ _______ _____ _____    ______ ____
ROOT
ATOM      1  C   UNL     1      -2.379   2.976 -21.816  0.00  0.00    +0.120 C 
ATOM      2  C   UNL     1      -1.468   2.290 -21.265  0.00  0.00    +0.066 C 
ATOM      3  C   UNL     1      -0.390   2.088 -21.869  0.00  0.00    +0.143 C 
ATOM      4  O   UNL     1       0.979   1.445 -21.840  0.00  0.00    -0.477 OA
ATOM      5  C   UNL     1       1.780   1.684 -23.088  0.00  0.00    +0.168 A 
ATOM      6  C   UNL     1       2.873   1.480 -23.700  0.00  0.00    +0.162 A 
ATOM      7  C   UNL     1       3.041   1.966 -24.858  0.00  0.00    +0.050 A 
ATOM      8  C   UNL     1       2.137   2.645 -25.400  0.00  0.00    +0.008 A 
ATOM      9  C   UNL     1       1.056   2.846 -24.792  0.00  0.00    -0.034 A 
ATOM     10  C   UNL     1       0.135   3.536 -25.339  0.00  0.00    +0.094 C 
ATOM     11  C   UNL     1      -0.942   3.736 -24.733  0.00  0.00    +0.097 C 
ATOM     12  C   UNL     1      -1.113   3.250 -23.575  0.00  0.00    -0.003 C 
ATOM     13  N   UNL     1      -2.204   4.022 -24.130  0.00  0.00    +0.239 N 
ATOM     14  H   UNL     1      -2.918   4.579 -24.600  0.00  0.00    +0.204 HD
ATOM     15  C   UNL     1      -3.071   4.707 -24.718  0.00  0.00    +0.191 C 
ATOM     16  C   UNL     1      -2.427   3.496 -22.839  0.00  0.00    +0.133 C 
ATOM     17  C   UNL     1      -1.390   2.735 -22.253  0.00  0.00    +0.071 C 
ATOM     18  C   UNL     1       0.871   2.370 -23.638  0.00  0.00    +0.016 A 
ATOM     19  C   UNL     1      -0.293   1.505 -20.763  0.00  0.00    +0.062 C 
ATOM     20  C   UNL     1      -0.209   2.572 -23.034  0.00  0.00    +0.074 C 
ATOM     21  C   UNL     1      -2.204   3.454 -22.962  0.00  0.00    +0.051 C 
ENDROOT
BRANCH   1  23
ATOM     22  C   UNL     1      -4.240   2.227 -20.987  0.00  0.00    +0.277 C 
ATOM     23  O   UNL     1      -3.458   3.179 -21.214  0.00  0.00    -0.495 OA
ENDBRANCH   1  23
BRANCH   6  24
ATOM     24  O   UNL     1       3.779   0.802 -23.163  0.00  0.00    -0.491 OA
ATOM     25  C   UNL     1       4.530   1.324 -22.306  0.00  0.00    +0.277 C 
ENDBRANCH   6  24
TORSDOF 2
ENDMDL
MODEL 8
REMARK VINA RESULT:    -9.260      2.434      3.913
REMARK INTER + INTRA:          -9.375
REMARK INTER:                 -10.436
REMARK INTRA:                   1.062
REMARK UNBOUND:                 0.968
REMARK  Name = COC1=C[C@@]2(C)Oc3c(OC)ccc4c3[C@]23CCN(C)[C@H](C4)C3=C1              ZINC000100393711
REMARK  6 active torsions:
REMARK  status: ('A' for Active; 'I' for Inactive)
REMARK    1  A    between atoms: C_1  and  O_2
REMARK    2  A    between atoms: O_2  and  C_3
REMARK    3  A    between atoms: C_5  and  C_6
REMARK    4  A    between atoms: C_9  and  O_10
REMARK    5  A    between atoms: O_10  and  C_11
REMARK    6  A    between atoms: N_19  and  C_20
REMARK                            x       y       z     vdW  Elec       q    Type
REMARK                         _______ _______ _______ _____ _____    ______ ____
ROOT
ATOM      1  C   UNL     1       4.045   1.711 -22.402  0.00  0.00    +0.120 C 
ATOM      2  C   UNL     1       2.981   1.024 -22.394  0.00  0.00    +0.066 C 
ATOM      3  C   UNL     1       1.883   1.574 -22.640  0.00  0.00    +0.143 C 
ATOM      4  O   UNL     1       0.387   1.408 -22.790  0.00  0.00    -0.477 OA
ATOM      5  C   UNL     1      -0.326   2.685 -23.137  0.00  0.00    +0.168 A 
ATOM      6  C   UNL     1      -1.438   3.243 -23.386  0.00  0.00    +0.162 A 
ATOM      7  C   UNL     1      -1.471   4.483 -23.642  0.00  0.00    +0.050 A 
ATOM      8  C   UNL     1      -0.416   5.160 -23.649  0.00  0.00    +0.008 A 
ATOM      9  C   UNL     1       0.684   4.606 -23.402  0.00  0.00    -0.034 A 
ATOM     10  C   UNL     1       1.759   5.290 -23.409  0.00  0.00    +0.094 C 
ATOM     11  C   UNL     1       2.855   4.737 -23.162  0.00  0.00    +0.097 C 
ATOM     12  C   UNL     1       2.892   3.496 -22.906  0.00  0.00    -0.003 C 
ATOM     13  N   UNL     1       4.152   4.206 -22.895  0.00  0.00    +0.239 N 
ATOM     14  H   UNL     1       4.992   4.785 -22.909  0.00  0.00    +0.204 HD
ATOM     15  C   UNL     1       5.174   4.929 -22.916  0.00  0.00    +0.191 C 
ATOM     16  C   UNL     1       4.229   2.826 -22.606  0.00  0.00    +0.133 C 
ATOM     17  C   UNL     1       3.023   2.089 -22.604  0.00  0.00    +0.071 C 
ATOM     18  C   UNL     1       0.737   3.371 -23.145  0.00  0.00    +0.016 A 
ATOM     19  C   UNL     1       1.635   0.363 -22.425  0.00  0.00    +0.062 C 
ATOM     20  C   UNL     1       1.836   2.821 -22.899  0.00  0.00    +0.074 C 
ATOM     21  C   UNL     1       4.002   2.938 -22.656  0.00  0.00    +0.051 C 
ENDROOT
BRANCH   1  23
ATOM     22  C   UNL     1       5.315   0.559 -21.072  0.00  0.00    +0.277 C 
ATOM     23  O   UNL     1       5.144   1.163 -22.156  0.00  0.00    -0.495 OA
ENDBRANCH   1  23
BRANCH   6  24
ATOM     24  O   UNL     1      -2.495   2.571 -23.380  0.00  0.00    -0.491 OA
ATOM     25  C   UNL     1      -3.450   2.909 -22.643  0.00  0.00    +0.277 C 
ENDBRANCH   6  24
TORSDOF 2
ENDMDL
MODEL 9
REMARK VINA RESULT:    -9.026      2.765      4.645
REMARK INTER + INTRA:          -9.114
REMARK INTER:                 -10.082
REMARK INTRA:                   0.968
REMARK UNBOUND:                 0.968
REMARK  Name = COC1=C[C@@]2(C)Oc3c(OC)ccc4c3[C@]23CCN(C)[C@H](C4)C3=C1              ZINC000100393711
REMARK  6 active torsions:
REMARK  status: ('A' for Active; 'I' for Inactive)
REMARK    1  A    between atoms: C_1  and  O_2
REMARK    2  A    between atoms: O_2  and  C_3
REMARK    3  A    between atoms: C_5  and  C_6
REMARK    4  A    between atoms: C_9  and  O_10
REMARK    5  A    between atoms: O_10  and  C_11
REMARK    6  A    between atoms: N_19  and  C_20
REMARK                            x       y       z     vdW  Elec       q    Type
REMARK                         _______ _______ _______ _____ _____    ______ ____
ROOT
ATOM      1  C   UNL     1       4.359   3.993 -23.074  0.00  0.00    +0.120 C 
ATOM      2  C   UNL     1       3.374   4.743 -23.343  0.00  0.00    +0.066 C 
ATOM      3  C   UNL     1       2.207   4.331 -23.149  0.00  0.00    +0.143 C 
ATOM      4  O   UNL     1       0.727   4.631 -23.227  0.00  0.00    -0.477 OA
ATOM      5  C   UNL     1      -0.140   3.497 -22.756  0.00  0.00    +0.168 A 
ATOM      6  C   UNL     1      -1.322   3.079 -22.559  0.00  0.00    +0.162 A 
ATOM      7  C   UNL     1      -1.503   1.914 -22.095  0.00  0.00    +0.050 A 
ATOM      8  C   UNL     1      -0.526   1.176 -21.831  0.00  0.00    +0.008 A 
ATOM      9  C   UNL     1       0.643   1.591 -22.027  0.00  0.00    -0.034 A 
ATOM     10  C   UNL     1       1.639   0.844 -21.759  0.00  0.00    +0.094 C 
ATOM     11  C   UNL     1       2.805   1.259 -21.955  0.00  0.00    +0.097 C 
ATOM     12  C   UNL     1       2.989   2.423 -22.419  0.00  0.00    -0.003 C 
ATOM     13  N   UNL     1       4.169   1.634 -22.140  0.00  0.00    +0.239 N 
ATOM     14  H   UNL     1       4.942   1.007 -21.914  0.00  0.00    +0.204 HD
ATOM     15  C   UNL     1       5.107   0.854 -21.858  0.00  0.00    +0.191 C 
ATOM     16  C   UNL     1       4.411   2.926 -22.655  0.00  0.00    +0.133 C 
ATOM     17  C   UNL     1       3.289   3.736 -22.944  0.00  0.00    +0.071 C 
ATOM     18  C   UNL     1       0.844   2.749 -22.488  0.00  0.00    +0.016 A 
ATOM     19  C   UNL     1       2.103   5.495 -23.604  0.00  0.00    +0.062 C 
ATOM     20  C   UNL     1       2.011   3.161 -22.682  0.00  0.00    +0.074 C 
ATOM     21  C   UNL     1       4.169   2.842 -22.616  0.00  0.00    +0.051 C 
ENDROOT
BRANCH   1  23
ATOM     22  C   UNL     1       6.217   4.809 -22.304  0.00  0.00    +0.277 C 
ATOM     23  O   UNL     1       5.526   4.403 -23.268  0.00  0.00    -0.495 OA
ENDBRANCH   1  23
BRANCH   6  24
ATOM     24  O   UNL     1      -2.302   3.814 -22.822  0.00  0.00    -0.491 OA
ATOM     25  C   UNL     1      -3.468   3.372 -22.704  0.00  0.00    +0.277 C 
ENDBRANCH   6  24
TORSDOF 2
ENDMDL
