MODEL 1
REMARK VINA RESULT:   -10.791      0.000      0.000
REMARK INTER + INTRA:         -11.425
REMARK INTER:                 -11.198
REMARK INTRA:                  -0.227
REMARK UNBOUND:                 1.259
REMARK  Name = ZINC000000338369
REMARK  5 active torsions:
REMARK  status: ('A' for Active; 'I' for Inactive)
REMARK    1  A    between atoms: C_1  and  O_2
REMARK    2  A    between atoms: O_2  and  C_3
REMARK    3  A    between atoms: C_8  and  O_9
REMARK    4  A    between atoms: O_9  and  C_10
REMARK    5  A    between atoms: C_16  and  C_17
REMARK                            x       y       z     vdW  Elec       q    Type
REMARK                         _______ _______ _______ _____ _____    ______ ____
ROOT
ATOM      1  C   UNL     1       4.185   2.491 -23.011  0.00  0.00    +0.162 A 
ATOM      2  C   UNL     1       3.586   3.001 -24.046  0.00  0.00    +0.053 A 
ATOM      3  C   UNL     1       2.293   3.134 -24.048  0.00  0.00    -0.037 A 
ATOM      4  C   UNL     1       1.599   2.758 -23.015  0.00  0.00    -0.020 A 
ATOM      5  C   UNL     1       0.306   2.891 -23.017  0.00  0.00    +0.111 C 
ATOM      6  C   UNL     1      -0.388   2.515 -21.985  0.00  0.00    +0.063 C 
ATOM      7  C   UNL     1      -1.681   2.649 -21.987  0.00  0.00    -0.033 A 
ATOM      8  C   UNL     1      -2.375   2.272 -20.954  0.00  0.00    +0.006 A 
ATOM      9  C   UNL     1      -3.668   2.406 -20.956  0.00  0.00    +0.019 A 
ATOM     10  C   UNL     1      -4.267   2.916 -21.991  0.00  0.00    +0.053 A 
ATOM     11  C   UNL     1      -3.574   3.292 -23.024  0.00  0.00    +0.032 A 
ATOM     12  C   UNL     1      -2.280   3.159 -23.021  0.00  0.00    +0.041 A 
ATOM     13  C   UNL     1      -1.586   3.535 -24.054  0.00  0.00    +0.247 C 
ATOM     14  O   UNL     1      -2.185   4.045 -25.089  0.00  0.00    -0.270 OA
ATOM     15  N   UNL     1      -0.293   3.401 -24.052  0.00  0.00    -0.290 N 
ATOM     16  C   UNL     1       0.401   3.778 -25.085  0.00  0.00    +0.113 C 
ATOM     17  C   UNL     1       2.198   2.248 -21.980  0.00  0.00    +0.055 A 
ATOM     18  C   UNL     1       1.694   3.645 -25.083  0.00  0.00    +0.054 C 
ATOM     19  C   UNL     1       3.491   2.114 -21.978  0.00  0.00    +0.162 A 
ENDROOT
BRANCH   1  21
ATOM     20  C   UNL     1       6.239   3.397 -23.184  0.00  0.00    +0.277 C 
ATOM     21  O   UNL     1       5.479   2.357 -23.008  0.00  0.00    -0.491 OA
ENDBRANCH   1  21
BRANCH  10  22
ATOM     22  C   UNL     1      -5.560   3.049 -21.993  0.00  0.00    +0.099 C 
ATOM     23  N   UNL     1      -6.854   3.183 -21.995  0.00  0.00    -0.191 NA
ENDBRANCH  10  22
BRANCH  19  24
ATOM     24  O   UNL     1       4.090   1.604 -20.943  0.00  0.00    -0.491 OA
ATOM     25  C   UNL     1       4.006   0.328 -20.706  0.00  0.00    +0.277 C 
ENDBRANCH  19  24
TORSDOF 3
ENDMDL
MODEL 2
REMARK VINA RESULT:    -9.917      2.012      3.302
REMARK INTER + INTRA:         -10.397
REMARK INTER:                 -10.332
REMARK INTRA:                  -0.065
REMARK UNBOUND:                 1.259
REMARK  Name = ZINC000000338369
REMARK  5 active torsions:
REMARK  status: ('A' for Active; 'I' for Inactive)
REMARK    1  A    between atoms: C_1  and  O_2
REMARK    2  A    between atoms: O_2  and  C_3
REMARK    3  A    between atoms: C_8  and  O_9
REMARK    4  A    between atoms: O_9  and  C_10
REMARK    5  A    between atoms: C_16  and  C_17
REMARK                            x       y       z     vdW  Elec       q    Type
REMARK                         _______ _______ _______ _____ _____    ______ ____
ROOT
ATOM      1  C   UNL     1       6.086   3.279 -22.661  0.00  0.00    +0.162 A 
ATOM      2  C   UNL     1       5.493   2.151 -22.407  0.00  0.00    +0.053 A 
ATOM      3  C   UNL     1       4.198   2.069 -22.472  0.00  0.00    -0.037 A 
ATOM      4  C   UNL     1       3.495   3.115 -22.792  0.00  0.00    -0.020 A 
ATOM      5  C   UNL     1       2.200   3.033 -22.857  0.00  0.00    +0.111 C 
ATOM      6  C   UNL     1       1.497   4.079 -23.177  0.00  0.00    +0.063 C 
ATOM      7  C   UNL     1       0.201   3.997 -23.243  0.00  0.00    -0.033 A 
ATOM      8  C   UNL     1      -0.501   5.043 -23.562  0.00  0.00    +0.006 A 
ATOM      9  C   UNL     1      -1.797   4.961 -23.628  0.00  0.00    +0.019 A 
ATOM     10  C   UNL     1      -2.390   3.832 -23.374  0.00  0.00    +0.053 A 
ATOM     11  C   UNL     1      -1.688   2.786 -23.054  0.00  0.00    +0.032 A 
ATOM     12  C   UNL     1      -0.392   2.868 -22.989  0.00  0.00    +0.041 A 
ATOM     13  C   UNL     1       0.310   1.822 -22.669  0.00  0.00    +0.247 C 
ATOM     14  O   UNL     1      -0.283   0.694 -22.415  0.00  0.00    -0.270 OA
ATOM     15  N   UNL     1       1.606   1.905 -22.604  0.00  0.00    -0.290 N 
ATOM     16  C   UNL     1       2.308   0.858 -22.284  0.00  0.00    +0.113 C 
ATOM     17  C   UNL     1       4.088   4.243 -23.046  0.00  0.00    +0.055 A 
ATOM     18  C   UNL     1       3.604   0.940 -22.218  0.00  0.00    +0.054 C 
ATOM     19  C   UNL     1       5.384   4.326 -22.980  0.00  0.00    +0.162 A 
ENDROOT
BRANCH   1  21
ATOM     20  C   UNL     1       8.107   3.034 -23.623  0.00  0.00    +0.277 C 
ATOM     21  O   UNL     1       7.382   3.362 -22.595  0.00  0.00    -0.491 OA
ENDBRANCH   1  21
BRANCH  10  22
ATOM     22  C   UNL     1      -3.685   3.750 -23.440  0.00  0.00    +0.099 C 
ATOM     23  N   UNL     1      -4.982   3.669 -23.505  0.00  0.00    -0.191 NA
ENDBRANCH  10  22
BRANCH  19  24
ATOM     24  O   UNL     1       5.978   5.454 -23.234  0.00  0.00    -0.491 OA
ATOM     25  C   UNL     1       6.084   6.357 -22.304  0.00  0.00    +0.277 C 
ENDBRANCH  19  24
TORSDOF 3
ENDMDL
MODEL 3
REMARK VINA RESULT:    -9.916      2.106      7.552
REMARK INTER + INTRA:         -10.396
REMARK INTER:                 -10.273
REMARK INTRA:                  -0.123
REMARK UNBOUND:                 1.259
REMARK  Name = ZINC000000338369
REMARK  5 active torsions:
REMARK  status: ('A' for Active; 'I' for Inactive)
REMARK    1  A    between atoms: C_1  and  O_2
REMARK    2  A    between atoms: O_2  and  C_3
REMARK    3  A    between atoms: C_8  and  O_9
REMARK    4  A    between atoms: O_9  and  C_10
REMARK    5  A    between atoms: C_16  and  C_17
REMARK                            x       y       z     vdW  Elec       q    Type
REMARK                         _______ _______ _______ _____ _____    ______ ____
ROOT
ATOM      1  C   UNL     1      -3.838   3.339 -23.060  0.00  0.00    +0.162 A 
ATOM      2  C   UNL     1      -3.375   2.483 -22.198  0.00  0.00    +0.053 A 
ATOM      3  C   UNL     1      -2.092   2.328 -22.062  0.00  0.00    -0.037 A 
ATOM      4  C   UNL     1      -1.271   3.029 -22.786  0.00  0.00    -0.020 A 
ATOM      5  C   UNL     1       0.012   2.874 -22.650  0.00  0.00    +0.111 C 
ATOM      6  C   UNL     1       0.833   3.575 -23.374  0.00  0.00    +0.063 C 
ATOM      7  C   UNL     1       2.116   3.420 -23.237  0.00  0.00    -0.033 A 
ATOM      8  C   UNL     1       2.936   4.121 -23.962  0.00  0.00    +0.006 A 
ATOM      9  C   UNL     1       4.220   3.966 -23.825  0.00  0.00    +0.019 A 
ATOM     10  C   UNL     1       4.683   3.110 -22.964  0.00  0.00    +0.053 A 
ATOM     11  C   UNL     1       3.863   2.408 -22.239  0.00  0.00    +0.032 A 
ATOM     12  C   UNL     1       2.579   2.564 -22.376  0.00  0.00    +0.041 A 
ATOM     13  C   UNL     1       1.759   1.862 -21.651  0.00  0.00    +0.247 C 
ATOM     14  O   UNL     1       2.222   1.006 -20.790  0.00  0.00    -0.270 OA
ATOM     15  N   UNL     1       0.475   2.017 -21.788  0.00  0.00    -0.290 N 
ATOM     16  C   UNL     1      -0.345   1.316 -21.063  0.00  0.00    +0.113 C 
ATOM     17  C   UNL     1      -1.734   3.885 -23.648  0.00  0.00    +0.055 A 
ATOM     18  C   UNL     1      -1.628   1.471 -21.200  0.00  0.00    +0.054 C 
ATOM     19  C   UNL     1      -3.017   4.040 -23.785  0.00  0.00    +0.162 A 
ENDROOT
BRANCH   1  21
ATOM     20  C   UNL     1      -5.916   3.249 -22.197  0.00  0.00    +0.277 C 
ATOM     21  O   UNL     1      -5.121   3.494 -23.197  0.00  0.00    -0.491 OA
ENDBRANCH   1  21
BRANCH  10  22
ATOM     22  C   UNL     1       5.966   2.955 -22.827  0.00  0.00    +0.099 C 
ATOM     23  N   UNL     1       7.250   2.799 -22.690  0.00  0.00    -0.191 NA
ENDBRANCH  10  22
BRANCH  19  24
ATOM     24  O   UNL     1      -3.480   4.897 -24.646  0.00  0.00    -0.491 OA
ATOM     25  C   UNL     1      -3.676   4.537 -25.880  0.00  0.00    +0.277 C 
ENDBRANCH  19  24
TORSDOF 3
ENDMDL
MODEL 4
REMARK VINA RESULT:    -9.518      2.308      6.863
REMARK INTER + INTRA:          -9.929
REMARK INTER:                  -9.710
REMARK INTRA:                  -0.218
REMARK UNBOUND:                 1.259
REMARK  Name = ZINC000000338369
REMARK  5 active torsions:
REMARK  status: ('A' for Active; 'I' for Inactive)
REMARK    1  A    between atoms: C_1  and  O_2
REMARK    2  A    between atoms: O_2  and  C_3
REMARK    3  A    between atoms: C_8  and  O_9
REMARK    4  A    between atoms: O_9  and  C_10
REMARK    5  A    between atoms: C_16  and  C_17
REMARK                            x       y       z     vdW  Elec       q    Type
REMARK                         _______ _______ _______ _____ _____    ______ ____
ROOT
ATOM      1  C   UNL     1      -3.978   3.965 -24.334  0.00  0.00    +0.162 A 
ATOM      2  C   UNL     1      -2.991   4.002 -25.180  0.00  0.00    +0.053 A 
ATOM      3  C   UNL     1      -1.813   3.588 -24.822  0.00  0.00    -0.037 A 
ATOM      4  C   UNL     1      -1.620   3.137 -23.618  0.00  0.00    -0.020 A 
ATOM      5  C   UNL     1      -0.441   2.723 -23.259  0.00  0.00    +0.111 C 
ATOM      6  C   UNL     1      -0.248   2.272 -22.055  0.00  0.00    +0.063 C 
ATOM      7  C   UNL     1       0.931   1.858 -21.697  0.00  0.00    -0.033 A 
ATOM      8  C   UNL     1       1.123   1.408 -20.493  0.00  0.00    +0.006 A 
ATOM      9  C   UNL     1       2.302   0.994 -20.134  0.00  0.00    +0.019 A 
ATOM     10  C   UNL     1       3.289   1.030 -20.980  0.00  0.00    +0.053 A 
ATOM     11  C   UNL     1       3.097   1.481 -22.184  0.00  0.00    +0.032 A 
ATOM     12  C   UNL     1       1.917   1.895 -22.543  0.00  0.00    +0.041 A 
ATOM     13  C   UNL     1       1.725   2.345 -23.747  0.00  0.00    +0.247 C 
ATOM     14  O   UNL     1       2.711   2.382 -24.593  0.00  0.00    -0.270 OA
ATOM     15  N   UNL     1       0.545   2.759 -24.105  0.00  0.00    -0.290 N 
ATOM     16  C   UNL     1       0.353   3.210 -25.309  0.00  0.00    +0.113 C 
ATOM     17  C   UNL     1      -2.606   3.100 -22.772  0.00  0.00    +0.055 A 
ATOM     18  C   UNL     1      -0.825   3.624 -25.668  0.00  0.00    +0.054 C 
ATOM     19  C   UNL     1      -3.786   3.515 -23.130  0.00  0.00    +0.162 A 
ENDROOT
BRANCH   1  21
ATOM     20  C   UNL     1      -5.904   3.635 -25.453  0.00  0.00    +0.277 C 
ATOM     21  O   UNL     1      -5.157   4.379 -24.693  0.00  0.00    -0.491 OA
ENDBRANCH   1  21
BRANCH  10  22
ATOM     22  C   UNL     1       4.467   0.616 -20.622  0.00  0.00    +0.099 C 
ATOM     23  N   UNL     1       5.646   0.201 -20.263  0.00  0.00    -0.191 NA
ENDBRANCH  10  22
BRANCH  19  24
ATOM     24  O   UNL     1      -4.772   3.478 -22.284  0.00  0.00    -0.491 OA
ATOM     25  C   UNL     1      -4.737   2.654 -21.279  0.00  0.00    +0.277 C 
ENDBRANCH  19  24
TORSDOF 3
ENDMDL
MODEL 5
REMARK VINA RESULT:    -9.404      2.872      4.379
REMARK INTER + INTRA:          -9.794
REMARK INTER:                  -9.533
REMARK INTRA:                  -0.261
REMARK UNBOUND:                 1.259
REMARK  Name = ZINC000000338369
REMARK  5 active torsions:
REMARK  status: ('A' for Active; 'I' for Inactive)
REMARK    1  A    between atoms: C_1  and  O_2
REMARK    2  A    between atoms: O_2  and  C_3
REMARK    3  A    between atoms: C_8  and  O_9
REMARK    4  A    between atoms: O_9  and  C_10
REMARK    5  A    between atoms: C_16  and  C_17
REMARK                            x       y       z     vdW  Elec       q    Type
REMARK                         _______ _______ _______ _____ _____    ______ ____
ROOT
ATOM      1  C   UNL     1       6.720   5.877 -22.256  0.00  0.00    +0.162 A 
ATOM      2  C   UNL     1       6.633   4.688 -22.775  0.00  0.00    +0.053 A 
ATOM      3  C   UNL     1       5.474   4.213 -23.121  0.00  0.00    -0.037 A 
ATOM      4  C   UNL     1       4.401   4.927 -22.948  0.00  0.00    -0.020 A 
ATOM      5  C   UNL     1       3.241   4.452 -23.293  0.00  0.00    +0.111 C 
ATOM      6  C   UNL     1       2.168   5.166 -23.121  0.00  0.00    +0.063 C 
ATOM      7  C   UNL     1       1.009   4.691 -23.466  0.00  0.00    -0.033 A 
ATOM      8  C   UNL     1      -0.063   5.405 -23.293  0.00  0.00    +0.006 A 
ATOM      9  C   UNL     1      -1.223   4.930 -23.639  0.00  0.00    +0.019 A 
ATOM     10  C   UNL     1      -1.310   3.741 -24.158  0.00  0.00    +0.053 A 
ATOM     11  C   UNL     1      -0.238   3.027 -24.331  0.00  0.00    +0.032 A 
ATOM     12  C   UNL     1       0.922   3.502 -23.985  0.00  0.00    +0.041 A 
ATOM     13  C   UNL     1       1.994   2.788 -24.158  0.00  0.00    +0.247 C 
ATOM     14  O   UNL     1       1.907   1.599 -24.677  0.00  0.00    -0.270 OA
ATOM     15  N   UNL     1       3.154   3.263 -23.812  0.00  0.00    -0.290 N 
ATOM     16  C   UNL     1       4.227   2.549 -23.985  0.00  0.00    +0.113 C 
ATOM     17  C   UNL     1       4.488   6.116 -22.429  0.00  0.00    +0.055 A 
ATOM     18  C   UNL     1       5.386   3.024 -23.640  0.00  0.00    +0.054 C 
ATOM     19  C   UNL     1       5.648   6.591 -22.083  0.00  0.00    +0.162 A 
ENDROOT
BRANCH   1  21
ATOM     20  C   UNL     1       8.642   5.680 -21.099  0.00  0.00    +0.277 C 
ATOM     21  O   UNL     1       7.880   6.352 -21.910  0.00  0.00    -0.491 OA
ENDBRANCH   1  21
BRANCH  10  22
ATOM     22  C   UNL     1      -2.470   3.266 -24.503  0.00  0.00    +0.099 C 
ATOM     23  N   UNL     1      -3.630   2.792 -24.850  0.00  0.00    -0.191 NA
ENDBRANCH  10  22
BRANCH  19  24
ATOM     24  O   UNL     1       5.735   7.780 -21.565  0.00  0.00    -0.491 OA
ATOM     25  C   UNL     1       4.743   8.263 -20.876  0.00  0.00    +0.277 C 
ENDBRANCH  19  24
TORSDOF 3
ENDMDL
MODEL 6
REMARK VINA RESULT:    -8.068      3.998      8.158
REMARK INTER + INTRA:          -8.224
REMARK INTER:                  -8.234
REMARK INTRA:                   0.010
REMARK UNBOUND:                 1.259
REMARK  Name = ZINC000000338369
REMARK  5 active torsions:
REMARK  status: ('A' for Active; 'I' for Inactive)
REMARK    1  A    between atoms: C_1  and  O_2
REMARK    2  A    between atoms: O_2  and  C_3
REMARK    3  A    between atoms: C_8  and  O_9
REMARK    4  A    between atoms: O_9  and  C_10
REMARK    5  A    between atoms: C_16  and  C_17
REMARK                            x       y       z     vdW  Elec       q    Type
REMARK                         _______ _______ _______ _____ _____    ______ ____
ROOT
ATOM      1  C   UNL     1       0.701   3.063 -23.997  0.00  0.00    +0.162 A 
ATOM      2  C   UNL     1       1.864   2.484 -24.008  0.00  0.00    +0.053 A 
ATOM      3  C   UNL     1       2.922   3.146 -23.646  0.00  0.00    -0.037 A 
ATOM      4  C   UNL     1       2.817   4.387 -23.272  0.00  0.00    -0.020 A 
ATOM      5  C   UNL     1       3.875   5.049 -22.909  0.00  0.00    +0.111 C 
ATOM      6  C   UNL     1       3.771   6.289 -22.536  0.00  0.00    +0.063 C 
ATOM      7  C   UNL     1       4.829   6.951 -22.173  0.00  0.00    -0.033 A 
ATOM      8  C   UNL     1       4.723   8.192 -21.799  0.00  0.00    +0.006 A 
ATOM      9  C   UNL     1       5.782   8.854 -21.437  0.00  0.00    +0.019 A 
ATOM     10  C   UNL     1       6.945   8.275 -21.448  0.00  0.00    +0.053 A 
ATOM     11  C   UNL     1       7.051   7.034 -21.821  0.00  0.00    +0.032 A 
ATOM     12  C   UNL     1       5.992   6.372 -22.184  0.00  0.00    +0.041 A 
ATOM     13  C   UNL     1       6.098   5.132 -22.558  0.00  0.00    +0.247 C 
ATOM     14  O   UNL     1       7.262   4.553 -22.569  0.00  0.00    -0.270 OA
ATOM     15  N   UNL     1       5.039   4.470 -22.920  0.00  0.00    -0.290 N 
ATOM     16  C   UNL     1       5.145   3.229 -23.294  0.00  0.00    +0.113 C 
ATOM     17  C   UNL     1       1.654   4.966 -23.261  0.00  0.00    +0.055 A 
ATOM     18  C   UNL     1       4.087   2.567 -23.657  0.00  0.00    +0.054 C 
ATOM     19  C   UNL     1       0.595   4.304 -23.624  0.00  0.00    +0.162 A 
ENDROOT
BRANCH   1  21
ATOM     20  C   UNL     1      -1.134   1.873 -23.461  0.00  0.00    +0.277 C 
ATOM     21  O   UNL     1      -0.358   2.401 -24.360  0.00  0.00    -0.491 OA
ENDBRANCH   1  21
BRANCH  10  22
ATOM     22  C   UNL     1       8.003   8.937 -21.085  0.00  0.00    +0.099 C 
ATOM     23  N   UNL     1       9.062   9.599 -20.722  0.00  0.00    -0.191 NA
ENDBRANCH  10  22
BRANCH  19  24
ATOM     24  O   UNL     1      -0.569   4.883 -23.613  0.00  0.00    -0.491 OA
ATOM     25  C   UNL     1      -1.060   5.335 -22.497  0.00  0.00    +0.277 C 
ENDBRANCH  19  24
TORSDOF 3
ENDMDL
