MODEL 1
REMARK VINA RESULT:   -10.740      0.000      0.000
REMARK INTER + INTRA:         -12.119
REMARK INTER:                 -11.977
REMARK INTRA:                  -0.141
REMARK UNBOUND:                -0.123
REMARK  Name = ZINC000002040402
REMARK  4 active torsions:
REMARK  status: ('A' for Active; 'I' for Inactive)
REMARK    1  A    between atoms: C_1  and  O_2
REMARK    2  A    between atoms: O_2  and  C_3
REMARK    3  A    between atoms: C_15  and  O_16
REMARK    4  A    between atoms: N_19  and  C_20
REMARK                            x       y       z     vdW  Elec       q    Type
REMARK                         _______ _______ _______ _____ _____    ______ ____
ROOT
ATOM      1  C   UNL     1       0.520   2.559 -23.222  0.00  0.00    +0.162 A 
ATOM      2  C   UNL     1       0.501   2.007 -22.083  0.00  0.00    +0.050 A 
ATOM      3  C   UNL     1      -0.573   1.893 -21.452  0.00  0.00    +0.008 A 
ATOM      4  C   UNL     1      -1.637   2.327 -21.947  0.00  0.00    -0.034 A 
ATOM      5  C   UNL     1      -1.641   2.881 -23.081  0.00  0.00    +0.015 A 
ATOM      6  C   UNL     1      -2.705   3.314 -23.574  0.00  0.00    +0.086 C 
ATOM      7  C   UNL     1      -3.853   3.844 -24.234  0.00  0.00    +0.070 C 
ATOM      8  C   UNL     1      -5.078   3.729 -23.546  0.00  0.00    +0.132 C 
ATOM      9  N   UNL     1      -5.063   3.110 -22.282  0.00  0.00    +0.238 N 
ATOM     10  H   UNL     1      -5.929   3.008 -21.753  0.00  0.00    +0.203 HD
ATOM     11  C   UNL     1      -6.107   2.969 -21.607  0.00  0.00    +0.191 C 
ATOM     12  C   UNL     1      -3.801   2.649 -21.805  0.00  0.00    +0.106 C 
ATOM     13  C   UNL     1      -3.775   3.199 -22.942  0.00  0.00    +0.141 C 
ATOM     14  C   UNL     1      -4.857   3.635 -23.435  0.00  0.00    +0.017 C 
ATOM     15  C   UNL     1      -4.851   4.184 -24.562  0.00  0.00    +0.049 C 
ATOM     16  C   UNL     1      -3.771   4.305 -25.211  0.00  0.00    +0.197 C 
ATOM     17  O   UNL     1      -3.769   4.854 -26.336  0.00  0.00    -0.289 OA
ATOM     18  C   UNL     1      -2.702   3.871 -24.717  0.00  0.00    +0.257 C 
ATOM     19  O   UNL     1      -1.211   3.684 -24.886  0.00  0.00    -0.476 OA
ATOM     20  C   UNL     1      -2.737   2.215 -21.311  0.00  0.00    +0.093 C 
ATOM     21  C   UNL     1      -0.559   2.998 -23.722  0.00  0.00    +0.167 A 
ENDROOT
BRANCH   1  23
ATOM     22  C   UNL     1       2.434   3.538 -23.512  0.00  0.00    +0.277 C 
ATOM     23  O   UNL     1       1.596   2.671 -23.850  0.00  0.00    -0.491 OA
ENDBRANCH   1  23
BRANCH  13  24
ATOM     24  O   UNL     1      -2.713   2.763 -22.443  0.00  0.00    -0.378 OA
ATOM     25  H   UNL     1      -2.584   3.157 -21.565  0.00  0.00    +0.211 HD
ENDBRANCH  13  24
TORSDOF 2
ENDMDL
MODEL 2
REMARK VINA RESULT:   -10.369      1.857      5.444
REMARK INTER + INTRA:         -11.704
REMARK INTER:                 -11.571
REMARK INTRA:                  -0.132
REMARK UNBOUND:                -0.123
REMARK  Name = ZINC000002040402
REMARK  4 active torsions:
REMARK  status: ('A' for Active; 'I' for Inactive)
REMARK    1  A    between atoms: C_1  and  O_2
REMARK    2  A    between atoms: O_2  and  C_3
REMARK    3  A    between atoms: C_15  and  O_16
REMARK    4  A    between atoms: N_19  and  C_20
REMARK                            x       y       z     vdW  Elec       q    Type
REMARK                         _______ _______ _______ _____ _____    ______ ____
ROOT
ATOM      1  C   UNL     1      -4.502   3.411 -22.483  0.00  0.00    +0.162 A 
ATOM      2  C   UNL     1      -4.765   3.867 -23.634  0.00  0.00    +0.050 A 
ATOM      3  C   UNL     1      -3.878   3.915 -24.514  0.00  0.00    +0.008 A 
ATOM      4  C   UNL     1      -2.722   3.511 -24.258  0.00  0.00    -0.034 A 
ATOM      5  C   UNL     1      -2.438   3.052 -23.117  0.00  0.00    +0.015 A 
ATOM      6  C   UNL     1      -1.283   2.648 -22.863  0.00  0.00    +0.086 C 
ATOM      7  C   UNL     1      -0.005   2.161 -22.460  0.00  0.00    +0.070 C 
ATOM      8  C   UNL     1       1.016   2.203 -23.433  0.00  0.00    +0.132 C 
ATOM      9  N   UNL     1       0.689   2.716 -24.702  0.00  0.00    +0.238 N 
ATOM     10  H   UNL     1       1.399   2.763 -25.433  0.00  0.00    +0.203 HD
ATOM     11  C   UNL     1       1.536   2.787 -25.620  0.00  0.00    +0.191 C 
ATOM     12  C   UNL     1      -0.655   3.152 -24.895  0.00  0.00    +0.106 C 
ATOM     13  C   UNL     1      -0.400   2.697 -23.744  0.00  0.00    +0.141 C 
ATOM     14  C   UNL     1       0.773   2.290 -23.495  0.00  0.00    +0.017 C 
ATOM     15  C   UNL     1       1.047   1.836 -22.358  0.00  0.00    +0.049 C 
ATOM     16  C   UNL     1       0.158   1.782 -21.458  0.00  0.00    +0.197 C 
ATOM     17  O   UNL     1       0.433   1.329 -20.325  0.00  0.00    -0.289 OA
ATOM     18  C   UNL     1      -1.003   2.187 -21.711  0.00  0.00    +0.257 C 
ATOM     19  O   UNL     1      -2.410   2.406 -21.202  0.00  0.00    -0.476 OA
ATOM     20  C   UNL     1      -1.811   3.556 -25.150  0.00  0.00    +0.093 C 
ATOM     21  C   UNL     1      -3.331   3.002 -22.225  0.00  0.00    +0.167 A 
ENDROOT
BRANCH   1  23
ATOM     22  C   UNL     1      -6.399   2.638 -21.768  0.00  0.00    +0.277 C 
ATOM     23  O   UNL     1      -5.392   3.365 -21.605  0.00  0.00    -0.491 OA
ENDBRANCH   1  23
BRANCH  13  24
ATOM     24  O   UNL     1      -1.554   3.103 -24.005  0.00  0.00    -0.378 OA
ATOM     25  H   UNL     1      -1.899   2.624 -24.775  0.00  0.00    +0.211 HD
ENDBRANCH  13  24
TORSDOF 2
ENDMDL
MODEL 3
REMARK VINA RESULT:   -10.007      1.306      2.926
REMARK INTER + INTRA:         -11.300
REMARK INTER:                 -11.183
REMARK INTRA:                  -0.117
REMARK UNBOUND:                -0.123
REMARK  Name = ZINC000002040402
REMARK  4 active torsions:
REMARK  status: ('A' for Active; 'I' for Inactive)
REMARK    1  A    between atoms: C_1  and  O_2
REMARK    2  A    between atoms: O_2  and  C_3
REMARK    3  A    between atoms: C_15  and  O_16
REMARK    4  A    between atoms: N_19  and  C_20
REMARK                            x       y       z     vdW  Elec       q    Type
REMARK                         _______ _______ _______ _____ _____    ______ ____
ROOT
ATOM      1  C   UNL     1       0.955   2.291 -22.713  0.00  0.00    +0.162 A 
ATOM      2  C   UNL     1       1.219   2.632 -23.903  0.00  0.00    +0.050 A 
ATOM      3  C   UNL     1       0.317   3.066 -24.653  0.00  0.00    +0.008 A 
ATOM      4  C   UNL     1      -0.855   3.166 -24.226  0.00  0.00    -0.034 A 
ATOM      5  C   UNL     1      -1.140   2.832 -23.043  0.00  0.00    +0.015 A 
ATOM      6  C   UNL     1      -2.312   2.932 -22.619  0.00  0.00    +0.086 C 
ATOM      7  C   UNL     1      -3.607   3.003 -22.027  0.00  0.00    +0.070 C 
ATOM      8  C   UNL     1      -4.645   3.489 -22.849  0.00  0.00    +0.132 C 
ATOM      9  N   UNL     1      -4.316   3.858 -24.167  0.00  0.00    +0.238 N 
ATOM     10  H   UNL     1      -5.039   4.215 -24.793  0.00  0.00    +0.203 HD
ATOM     11  C   UNL     1      -5.178   4.299 -24.960  0.00  0.00    +0.191 C 
ATOM     12  C   UNL     1      -2.953   3.708 -24.558  0.00  0.00    +0.106 C 
ATOM     13  C   UNL     1      -3.210   3.366 -23.369  0.00  0.00    +0.141 C 
ATOM     14  C   UNL     1      -4.399   3.471 -22.946  0.00  0.00    +0.017 C 
ATOM     15  C   UNL     1      -4.673   3.137 -21.769  0.00  0.00    +0.049 C 
ATOM     16  C   UNL     1      -3.770   2.696 -21.000  0.00  0.00    +0.197 C 
ATOM     17  O   UNL     1      -4.046   2.364 -19.826  0.00  0.00    -0.289 OA
ATOM     18  C   UNL     1      -2.593   2.594 -21.425  0.00  0.00    +0.257 C 
ATOM     19  O   UNL     1      -1.164   2.200 -21.123  0.00  0.00    -0.476 OA
ATOM     20  C   UNL     1      -1.782   3.608 -24.984  0.00  0.00    +0.093 C 
ATOM     21  C   UNL     1      -0.233   2.393 -22.282  0.00  0.00    +0.167 A 
ENDROOT
BRANCH   1  23
ATOM     22  C   UNL     1       3.035   2.271 -22.097  0.00  0.00    +0.277 C 
ATOM     23  O   UNL     1       1.860   1.857 -21.966  0.00  0.00    -0.491 OA
ENDBRANCH   1  23
BRANCH  13  24
ATOM     24  O   UNL     1      -2.039   3.268 -23.800  0.00  0.00    -0.378 OA
ATOM     25  H   UNL     1      -1.637   4.150 -23.845  0.00  0.00    +0.211 HD
ENDBRANCH  13  24
TORSDOF 2
ENDMDL
MODEL 4
REMARK VINA RESULT:    -9.769      1.939      4.893
REMARK INTER + INTRA:         -11.034
REMARK INTER:                 -10.924
REMARK INTRA:                  -0.110
REMARK UNBOUND:                -0.123
REMARK  Name = ZINC000002040402
REMARK  4 active torsions:
REMARK  status: ('A' for Active; 'I' for Inactive)
REMARK    1  A    between atoms: C_1  and  O_2
REMARK    2  A    between atoms: O_2  and  C_3
REMARK    3  A    between atoms: C_15  and  O_16
REMARK    4  A    between atoms: N_19  and  C_20
REMARK                            x       y       z     vdW  Elec       q    Type
REMARK                         _______ _______ _______ _____ _____    ______ ____
ROOT
ATOM      1  C   UNL     1      -3.567   3.500 -23.010  0.00  0.00    +0.162 A 
ATOM      2  C   UNL     1      -3.775   2.857 -21.939  0.00  0.00    +0.050 A 
ATOM      3  C   UNL     1      -2.845   2.227 -21.388  0.00  0.00    +0.008 A 
ATOM      4  C   UNL     1      -1.702   2.230 -21.896  0.00  0.00    -0.034 A 
ATOM      5  C   UNL     1      -1.473   2.864 -22.964  0.00  0.00    +0.015 A 
ATOM      6  C   UNL     1      -0.330   2.866 -23.469  0.00  0.00    +0.086 C 
ATOM      7  C   UNL     1       0.928   2.939 -24.136  0.00  0.00    +0.070 C 
ATOM      8  C   UNL     1       1.995   2.238 -23.537  0.00  0.00    +0.132 C 
ATOM      9  N   UNL     1       1.729   1.534 -22.347  0.00  0.00    +0.238 N 
ATOM     10  H   UNL     1       2.475   1.015 -21.884  0.00  0.00    +0.203 HD
ATOM     11  C   UNL     1       2.621   0.887 -21.754  0.00  0.00    +0.191 C 
ATOM     12  C   UNL     1       0.395   1.593 -21.848  0.00  0.00    +0.106 C 
ATOM     13  C   UNL     1       0.595   2.236 -22.917  0.00  0.00    +0.141 C 
ATOM     14  C   UNL     1       1.756   2.233 -23.424  0.00  0.00    +0.017 C 
ATOM     15  C   UNL     1       1.974   2.865 -24.484  0.00  0.00    +0.049 C 
ATOM     16  C   UNL     1       1.043   3.507 -25.052  0.00  0.00    +0.197 C 
ATOM     17  O   UNL     1       1.264   4.137 -26.110  0.00  0.00    -0.289 OA
ATOM     18  C   UNL     1      -0.106   3.506 -24.545  0.00  0.00    +0.257 C 
ATOM     19  O   UNL     1      -1.537   3.985 -24.644  0.00  0.00    -0.476 OA
ATOM     20  C   UNL     1      -0.748   1.590 -21.341  0.00  0.00    +0.093 C 
ATOM     21  C   UNL     1      -2.408   3.502 -23.524  0.00  0.00    +0.167 A 
ENDROOT
BRANCH   1  23
ATOM     22  C   UNL     1      -4.929   3.767 -24.677  0.00  0.00    +0.277 C 
ATOM     23  O   UNL     1      -4.499   4.129 -23.558  0.00  0.00    -0.491 OA
ENDBRANCH   1  23
BRANCH  13  24
ATOM     24  O   UNL     1      -0.546   2.230 -22.405  0.00  0.00    -0.378 OA
ATOM     25  H   UNL     1      -0.836   3.143 -22.250  0.00  0.00    +0.211 HD
ENDBRANCH  13  24
TORSDOF 2
ENDMDL
MODEL 5
REMARK VINA RESULT:    -9.608      1.429      2.121
REMARK INTER + INTRA:         -10.854
REMARK INTER:                 -10.731
REMARK INTRA:                  -0.124
REMARK UNBOUND:                -0.123
REMARK  Name = ZINC000002040402
REMARK  4 active torsions:
REMARK  status: ('A' for Active; 'I' for Inactive)
REMARK    1  A    between atoms: C_1  and  O_2
REMARK    2  A    between atoms: O_2  and  C_3
REMARK    3  A    between atoms: C_15  and  O_16
REMARK    4  A    between atoms: N_19  and  C_20
REMARK                            x       y       z     vdW  Elec       q    Type
REMARK                         _______ _______ _______ _____ _____    ______ ____
ROOT
ATOM      1  C   UNL     1       2.501   2.006 -23.333  0.00  0.00    +0.162 A 
ATOM      2  C   UNL     1       2.632   1.614 -22.137  0.00  0.00    +0.050 A 
ATOM      3  C   UNL     1       1.639   1.549 -21.379  0.00  0.00    +0.008 A 
ATOM      4  C   UNL     1       0.508   1.874 -21.802  0.00  0.00    -0.034 A 
ATOM      5  C   UNL     1       0.354   2.268 -22.992  0.00  0.00    +0.015 A 
ATOM      6  C   UNL     1      -0.777   2.592 -23.413  0.00  0.00    +0.086 C 
ATOM      7  C   UNL     1      -2.015   2.986 -24.003  0.00  0.00    +0.070 C 
ATOM      8  C   UNL     1      -3.152   2.923 -23.170  0.00  0.00    +0.132 C 
ATOM      9  N   UNL     1      -2.969   2.482 -21.846  0.00  0.00    +0.238 N 
ATOM     10  H   UNL     1      -3.767   2.422 -21.213  0.00  0.00    +0.203 HD
ATOM     11  C   UNL     1      -3.927   2.397 -21.045  0.00  0.00    +0.191 C 
ATOM     12  C   UNL     1      -1.642   2.135 -21.459  0.00  0.00    +0.106 C 
ATOM     13  C   UNL     1      -1.766   2.526 -22.654  0.00  0.00    +0.141 C 
ATOM     14  C   UNL     1      -2.915   2.852 -23.073  0.00  0.00    +0.017 C 
ATOM     15  C   UNL     1      -3.059   3.243 -24.256  0.00  0.00    +0.049 C 
ATOM     16  C   UNL     1      -2.062   3.313 -25.034  0.00  0.00    +0.197 C 
ATOM     17  O   UNL     1      -2.209   3.703 -26.214  0.00  0.00    -0.289 OA
ATOM     18  C   UNL     1      -0.925   2.988 -24.612  0.00  0.00    +0.257 C 
ATOM     19  O   UNL     1       0.546   2.833 -24.923  0.00  0.00    -0.476 OA
ATOM     20  C   UNL     1      -0.510   1.811 -21.036  0.00  0.00    +0.093 C 
ATOM     21  C   UNL     1       1.354   2.335 -23.761  0.00  0.00    +0.167 A 
ENDROOT
BRANCH   1  23
ATOM     22  C   UNL     1       4.539   2.647 -23.706  0.00  0.00    +0.277 C 
ATOM     23  O   UNL     1       3.496   2.070 -24.088  0.00  0.00    -0.491 OA
ENDBRANCH   1  23
BRANCH  13  24
ATOM     24  O   UNL     1      -0.636   2.200 -22.226  0.00  0.00    -0.378 OA
ATOM     25  H   UNL     1       0.033   2.389 -22.902  0.00  0.00    +0.211 HD
ENDBRANCH  13  24
TORSDOF 2
ENDMDL
MODEL 6
REMARK VINA RESULT:    -9.263      2.141      3.923
REMARK INTER + INTRA:         -10.469
REMARK INTER:                 -10.357
REMARK INTRA:                  -0.112
REMARK UNBOUND:                -0.123
REMARK  Name = ZINC000002040402
REMARK  4 active torsions:
REMARK  status: ('A' for Active; 'I' for Inactive)
REMARK    1  A    between atoms: C_1  and  O_2
REMARK    2  A    between atoms: O_2  and  C_3
REMARK    3  A    between atoms: C_15  and  O_16
REMARK    4  A    between atoms: N_19  and  C_20
REMARK                            x       y       z     vdW  Elec       q    Type
REMARK                         _______ _______ _______ _____ _____    ______ ____
ROOT
ATOM      1  C   UNL     1       2.494   1.197 -21.667  0.00  0.00    +0.162 A 
ATOM      2  C   UNL     1       3.209   1.384 -22.695  0.00  0.00    +0.050 A 
ATOM      3  C   UNL     1       2.704   1.842 -23.744  0.00  0.00    +0.008 A 
ATOM      4  C   UNL     1       1.485   2.117 -23.781  0.00  0.00    -0.034 A 
ATOM      5  C   UNL     1       0.753   1.938 -22.768  0.00  0.00    +0.015 A 
ATOM      6  C   UNL     1      -0.465   2.214 -22.807  0.00  0.00    +0.086 C 
ATOM      7  C   UNL     1      -1.863   2.491 -22.734  0.00  0.00    +0.070 C 
ATOM      8  C   UNL     1      -2.459   3.008 -23.903  0.00  0.00    +0.132 C 
ATOM      9  N   UNL     1      -1.634   3.204 -25.027  0.00  0.00    +0.238 N 
ATOM     10  H   UNL     1      -2.029   3.576 -25.891  0.00  0.00    +0.203 HD
ATOM     11  C   UNL     1      -2.086   3.658 -26.102  0.00  0.00    +0.191 C 
ATOM     12  C   UNL     1      -0.258   2.860 -24.884  0.00  0.00    +0.106 C 
ATOM     13  C   UNL     1      -0.966   2.671 -23.855  0.00  0.00    +0.141 C 
ATOM     14  C   UNL     1      -2.200   2.952 -23.903  0.00  0.00    +0.017 C 
ATOM     15  C   UNL     1      -2.920   2.772 -22.892  0.00  0.00    +0.049 C 
ATOM     16  C   UNL     1      -2.421   2.309 -21.824  0.00  0.00    +0.197 C 
ATOM     17  O   UNL     1      -3.141   2.130 -20.817  0.00  0.00    -0.289 OA
ATOM     18  C   UNL     1      -1.197   2.032 -21.783  0.00  0.00    +0.257 C 
ATOM     19  O   UNL     1      -0.042   1.509 -20.960  0.00  0.00    -0.476 OA
ATOM     20  C   UNL     1       0.961   2.584 -24.846  0.00  0.00    +0.093 C 
ATOM     21  C   UNL     1       1.258   1.477 -21.706  0.00  0.00    +0.167 A 
ENDROOT
BRANCH   1  23
ATOM     22  C   UNL     1       4.187   0.334 -20.622  0.00  0.00    +0.277 C 
ATOM     23  O   UNL     1       3.003   0.740 -20.620  0.00  0.00    -0.491 OA
ENDBRANCH   1  23
BRANCH  13  24
ATOM     24  O   UNL     1       0.254   2.397 -23.823  0.00  0.00    -0.378 OA
ATOM     25  H   UNL     1       0.751   3.172 -23.519  0.00  0.00    +0.211 HD
ENDBRANCH  13  24
TORSDOF 2
ENDMDL
MODEL 7
REMARK VINA RESULT:    -9.071      1.895      4.421
REMARK INTER + INTRA:         -10.254
REMARK INTER:                 -10.105
REMARK INTRA:                  -0.150
REMARK UNBOUND:                -0.123
REMARK  Name = ZINC000002040402
REMARK  4 active torsions:
REMARK  status: ('A' for Active; 'I' for Inactive)
REMARK    1  A    between atoms: C_1  and  O_2
REMARK    2  A    between atoms: O_2  and  C_3
REMARK    3  A    between atoms: C_15  and  O_16
REMARK    4  A    between atoms: N_19  and  C_20
REMARK                            x       y       z     vdW  Elec       q    Type
REMARK                         _______ _______ _______ _____ _____    ______ ____
ROOT
ATOM      1  C   UNL     1      -4.856   3.385 -21.750  0.00  0.00    +0.162 A 
ATOM      2  C   UNL     1      -4.204   3.371 -20.666  0.00  0.00    +0.050 A 
ATOM      3  C   UNL     1      -2.953   3.389 -20.678  0.00  0.00    +0.008 A 
ATOM      4  C   UNL     1      -2.340   3.423 -21.768  0.00  0.00    -0.034 A 
ATOM      5  C   UNL     1      -2.971   3.438 -22.862  0.00  0.00    +0.015 A 
ATOM      6  C   UNL     1      -2.356   3.472 -23.950  0.00  0.00    +0.086 C 
ATOM      7  C   UNL     1      -1.766   3.510 -25.247  0.00  0.00    +0.070 C 
ATOM      8  C   UNL     1      -0.356   3.532 -25.292  0.00  0.00    +0.132 C 
ATOM      9  N   UNL     1       0.337   3.514 -24.067  0.00  0.00    +0.238 N 
ATOM     10  H   UNL     1       1.357   3.529 -24.058  0.00  0.00    +0.203 HD
ATOM     11  C   UNL     1       1.588   3.532 -24.020  0.00  0.00    +0.191 C 
ATOM     12  C   UNL     1      -0.451   3.476 -22.880  0.00  0.00    +0.106 C 
ATOM     13  C   UNL     1      -1.109   3.490 -23.959  0.00  0.00    +0.141 C 
ATOM     14  C   UNL     1      -0.479   3.524 -25.057  0.00  0.00    +0.017 C 
ATOM     15  C   UNL     1      -1.113   3.539 -26.138  0.00  0.00    +0.049 C 
ATOM     16  C   UNL     1      -2.379   3.521 -26.140  0.00  0.00    +0.197 C 
ATOM     17  O   UNL     1      -3.010   3.536 -27.220  0.00  0.00    -0.289 OA
ATOM     18  C   UNL     1      -2.998   3.487 -25.048  0.00  0.00    +0.257 C 
ATOM     19  O   UNL     1      -4.339   3.452 -24.350  0.00  0.00    -0.476 OA
ATOM     20  C   UNL     1      -1.065   3.442 -21.791  0.00  0.00    +0.093 C 
ATOM     21  C   UNL     1      -4.234   3.419 -22.854  0.00  0.00    +0.167 A 
ENDROOT
BRANCH   1  23
ATOM     22  C   UNL     1      -6.719   2.274 -21.740  0.00  0.00    +0.277 C 
ATOM     23  O   UNL     1      -6.107   3.367 -21.734  0.00  0.00    -0.491 OA
ENDBRANCH   1  23
BRANCH  13  24
ATOM     24  O   UNL     1      -1.717   3.457 -22.866  0.00  0.00    -0.378 OA
ATOM     25  H   UNL     1      -1.080   3.540 -22.139  0.00  0.00    +0.211 HD
ENDBRANCH  13  24
TORSDOF 2
ENDMDL
MODEL 8
REMARK VINA RESULT:    -8.765      2.441      3.995
REMARK INTER + INTRA:          -9.913
REMARK INTER:                  -9.762
REMARK INTRA:                  -0.151
REMARK UNBOUND:                -0.123
REMARK  Name = ZINC000002040402
REMARK  4 active torsions:
REMARK  status: ('A' for Active; 'I' for Inactive)
REMARK    1  A    between atoms: C_1  and  O_2
REMARK    2  A    between atoms: O_2  and  C_3
REMARK    3  A    between atoms: C_15  and  O_16
REMARK    4  A    between atoms: N_19  and  C_20
REMARK                            x       y       z     vdW  Elec       q    Type
REMARK                         _______ _______ _______ _____ _____    ______ ____
ROOT
ATOM      1  C   UNL     1       4.163   1.800 -22.066  0.00  0.00    +0.162 A 
ATOM      2  C   UNL     1       3.752   1.214 -21.022  0.00  0.00    +0.050 A 
ATOM      3  C   UNL     1       2.527   1.134 -20.781  0.00  0.00    +0.008 A 
ATOM      4  C   UNL     1       1.701   1.634 -21.576  0.00  0.00    -0.034 A 
ATOM      5  C   UNL     1       2.089   2.223 -22.623  0.00  0.00    +0.015 A 
ATOM      6  C   UNL     1       1.261   2.722 -23.415  0.00  0.00    +0.086 C 
ATOM      7  C   UNL     1       0.413   3.328 -24.389  0.00  0.00    +0.070 C 
ATOM      8  C   UNL     1      -0.974   3.252 -24.143  0.00  0.00    +0.132 C 
ATOM      9  N   UNL     1      -1.396   2.594 -22.973  0.00  0.00    +0.238 N 
ATOM     10  H   UNL     1      -2.391   2.519 -22.759  0.00  0.00    +0.203 HD
ATOM     11  C   UNL     1      -2.608   2.484 -22.682  0.00  0.00    +0.191 C 
ATOM     12  C   UNL     1      -0.377   2.057 -22.132  0.00  0.00    +0.106 C 
ATOM     13  C   UNL     1       0.039   2.640 -23.172  0.00  0.00    +0.141 C 
ATOM     14  C   UNL     1      -0.805   3.144 -23.970  0.00  0.00    +0.017 C 
ATOM     15  C   UNL     1      -0.411   3.726 -25.008  0.00  0.00    +0.049 C 
ATOM     16  C   UNL     1       0.826   3.815 -25.264  0.00  0.00    +0.197 C 
ATOM     17  O   UNL     1       1.216   4.397 -26.300  0.00  0.00    -0.289 OA
ATOM     18  C   UNL     1       1.658   3.314 -24.469  0.00  0.00    +0.257 C 
ATOM     19  O   UNL     1       3.114   3.059 -24.151  0.00  0.00    -0.476 OA
ATOM     20  C   UNL     1       0.450   1.557 -21.338  0.00  0.00    +0.093 C 
ATOM     21  C   UNL     1       3.324   2.306 -22.871  0.00  0.00    +0.167 A 
ENDROOT
BRANCH   1  23
ATOM     22  C   UNL     1       6.032   2.896 -21.960  0.00  0.00    +0.277 C 
ATOM     23  O   UNL     1       5.389   1.878 -22.304  0.00  0.00    -0.491 OA
ENDBRANCH   1  23
BRANCH  13  24
ATOM     24  O   UNL     1       0.862   2.138 -22.375  0.00  0.00    -0.378 OA
ATOM     25  H   UNL     1       0.415   1.924 -21.541  0.00  0.00    +0.211 HD
ENDBRANCH  13  24
TORSDOF 2
ENDMDL
MODEL 9
REMARK VINA RESULT:    -8.287      2.384      5.773
REMARK INTER + INTRA:          -9.379
REMARK INTER:                  -9.256
REMARK INTRA:                  -0.123
REMARK UNBOUND:                -0.123
REMARK  Name = ZINC000002040402
REMARK  4 active torsions:
REMARK  status: ('A' for Active; 'I' for Inactive)
REMARK    1  A    between atoms: C_1  and  O_2
REMARK    2  A    between atoms: O_2  and  C_3
REMARK    3  A    between atoms: C_15  and  O_16
REMARK    4  A    between atoms: N_19  and  C_20
REMARK                            x       y       z     vdW  Elec       q    Type
REMARK                         _______ _______ _______ _____ _____    ______ ____
ROOT
ATOM      1  C   UNL     1      -1.863   3.896 -23.515  0.00  0.00    +0.162 A 
ATOM      2  C   UNL     1      -2.443   2.870 -23.053  0.00  0.00    +0.050 A 
ATOM      3  C   UNL     1      -1.781   1.963 -22.500  0.00  0.00    +0.008 A 
ATOM      4  C   UNL     1      -0.539   2.069 -22.402  0.00  0.00    -0.034 A 
ATOM      5  C   UNL     1       0.060   3.083 -22.856  0.00  0.00    +0.015 A 
ATOM      6  C   UNL     1       1.301   3.186 -22.756  0.00  0.00    +0.086 C 
ATOM      7  C   UNL     1       2.708   3.413 -22.701  0.00  0.00    +0.070 C 
ATOM      8  C   UNL     1       3.480   2.407 -22.083  0.00  0.00    +0.132 C 
ATOM      9  N   UNL     1       2.802   1.280 -21.580  0.00  0.00    +0.238 N 
ATOM     10  H   UNL     1       3.325   0.531 -21.126  0.00  0.00    +0.203 HD
ATOM     11  C   UNL     1       3.414   0.344 -21.018  0.00  0.00    +0.191 C 
ATOM     12  C   UNL     1       1.386   1.254 -21.741  0.00  0.00    +0.106 C 
ATOM     13  C   UNL     1       1.959   2.280 -22.204  0.00  0.00    +0.141 C 
ATOM     14  C   UNL     1       3.217   2.378 -22.100  0.00  0.00    +0.017 C 
ATOM     15  C   UNL     1       3.803   3.389 -22.553  0.00  0.00    +0.049 C 
ATOM     16  C   UNL     1       3.146   4.313 -23.115  0.00  0.00    +0.197 C 
ATOM     17  O   UNL     1       3.733   5.321 -23.567  0.00  0.00    -0.289 OA
ATOM     18  C   UNL     1       1.898   4.211 -23.216  0.00  0.00    +0.257 C 
ATOM     19  O   UNL     1       0.609   4.836 -23.699  0.00  0.00    -0.476 OA
ATOM     20  C   UNL     1       0.144   1.149 -21.839  0.00  0.00    +0.093 C 
ATOM     21  C   UNL     1      -0.604   4.001 -23.415  0.00  0.00    +0.167 A 
ENDROOT
BRANCH   1  23
ATOM     22  C   UNL     1      -3.389   4.510 -24.928  0.00  0.00    +0.277 C 
ATOM     23  O   UNL     1      -2.528   4.800 -24.067  0.00  0.00    -0.491 OA
ENDBRANCH   1  23
BRANCH  13  24
ATOM     24  O   UNL     1       0.716   2.170 -22.300  0.00  0.00    -0.378 OA
ATOM     25  H   UNL     1       0.361   2.933 -22.783  0.00  0.00    +0.211 HD
ENDBRANCH  13  24
TORSDOF 2
ENDMDL
