MODEL 1
REMARK VINA RESULT:   -10.545      0.000      0.000
REMARK INTER + INTRA:         -10.854
REMARK INTER:                 -10.854
REMARK INTRA:                   0.000
REMARK UNBOUND:                 0.000
REMARK  Name = C=C1C(=O)O[C@@H]2/C=C(\C)[C@@H](O)C/C=C(\C)CC[C@H]12                 ZINC000105223888
REMARK  3 active torsions:
REMARK  status: ('A' for Active; 'I' for Inactive)
REMARK    1  A    between atoms: C_8  and  C_9
REMARK    2  A    between atoms: C_10  and  O_11
REMARK    3  A    between atoms: C_14  and  C_15
REMARK                            x       y       z     vdW  Elec       q    Type
REMARK                         _______ _______ _______ _____ _____    ______ ____
ROOT
ATOM      1  C   UNL     1       0.660   1.525 -21.214  0.00  0.00    +0.020 C 
ATOM      2  C   UNL     1      -0.071   1.974 -22.193  0.00  0.00    +0.036 C 
ATOM      3  C   UNL     1       0.326   2.159 -23.421  0.00  0.00    +0.336 C 
ATOM      4  O   UNL     1      -0.681   2.616 -24.109  0.00  0.00    -0.453 OA
ATOM      5  C   UNL     1      -1.703   2.713 -23.303  0.00  0.00    +0.207 C 
ATOM      6  C   UNL     1      -2.789   3.067 -23.472  0.00  0.00    +0.019 C 
ATOM      7  C   UNL     1      -3.212   3.470 -24.626  0.00  0.00    -0.045 C 
ATOM      8  C   UNL     1      -4.517   3.883 -24.781  0.00  0.00    +0.144 C 
ATOM      9  C   UNL     1      -5.468   3.900 -23.730  0.00  0.00    +0.063 C 
ATOM     10  C   UNL     1      -5.204   3.514 -22.454  0.00  0.00    -0.025 C 
ATOM     11  C   UNL     1      -4.074   3.139 -22.252  0.00  0.00    -0.076 C 
ATOM     12  C   UNL     1      -3.566   2.719 -21.126  0.00  0.00    +0.031 C 
ATOM     13  C   UNL     1      -2.224   2.315 -21.052  0.00  0.00    +0.016 C 
ATOM     14  C   UNL     1      -3.462   3.169 -23.095  0.00  0.00    +0.039 C 
ATOM     15  C   UNL     1      -2.399   3.486 -25.654  0.00  0.00    +0.041 C 
ATOM     16  O   UNL     1       1.522   1.928 -23.885  0.00  0.00    -0.245 OA
ATOM     17  C   UNL     1      -1.327   2.318 -22.123  0.00  0.00    +0.070 C 
ENDROOT
BRANCH   8  18
ATOM     18  O   UNL     1      -4.901   4.283 -25.969  0.00  0.00    -0.387 OA
ATOM     19  H   UNL     1      -4.851   5.250 -26.016  0.00  0.00    +0.210 HD
ENDBRANCH   8  18
TORSDOF 1
ENDMDL
MODEL 2
REMARK VINA RESULT:   -10.387      1.648      2.760
REMARK INTER + INTRA:         -10.691
REMARK INTER:                 -10.691
REMARK INTRA:                   0.000
REMARK UNBOUND:                 0.000
REMARK  Name = C=C1C(=O)O[C@@H]2/C=C(\C)[C@@H](O)C/C=C(\C)CC[C@H]12                 ZINC000105223888
REMARK  3 active torsions:
REMARK  status: ('A' for Active; 'I' for Inactive)
REMARK    1  A    between atoms: C_8  and  C_9
REMARK    2  A    between atoms: C_10  and  O_11
REMARK    3  A    between atoms: C_14  and  C_15
REMARK                            x       y       z     vdW  Elec       q    Type
REMARK                         _______ _______ _______ _____ _____    ______ ____
ROOT
ATOM      1  C   UNL     1       1.480   2.127 -22.939  0.00  0.00    +0.020 C 
ATOM      2  C   UNL     1       0.247   2.235 -22.535  0.00  0.00    +0.036 C 
ATOM      3  C   UNL     1      -0.214   1.858 -21.376  0.00  0.00    +0.336 C 
ATOM      4  O   UNL     1      -1.488   2.127 -21.338  0.00  0.00    -0.453 OA
ATOM      5  C   UNL     1      -1.814   2.672 -22.478  0.00  0.00    +0.207 C 
ATOM      6  C   UNL     1      -2.820   3.066 -22.886  0.00  0.00    +0.019 C 
ATOM      7  C   UNL     1      -3.911   3.022 -22.192  0.00  0.00    -0.045 C 
ATOM      8  C   UNL     1      -5.088   3.504 -22.720  0.00  0.00    +0.144 C 
ATOM      9  C   UNL     1      -5.198   4.066 -24.017  0.00  0.00    +0.063 C 
ATOM     10  C   UNL     1      -4.161   4.194 -24.885  0.00  0.00    -0.025 C 
ATOM     11  C   UNL     1      -3.098   3.789 -24.481  0.00  0.00    -0.076 C 
ATOM     12  C   UNL     1      -1.955   3.794 -25.110  0.00  0.00    +0.031 C 
ATOM     13  C   UNL     1      -0.799   3.283 -24.501  0.00  0.00    +0.016 C 
ATOM     14  C   UNL     1      -3.134   3.397 -23.516  0.00  0.00    +0.039 C 
ATOM     15  C   UNL     1      -3.899   2.518 -20.982  0.00  0.00    +0.041 C 
ATOM     16  O   UNL     1       0.476   1.306 -20.417  0.00  0.00    -0.245 OA
ATOM     17  C   UNL     1      -0.745   2.738 -23.215  0.00  0.00    +0.070 C 
ENDROOT
BRANCH   8  18
ATOM     18  O   UNL     1      -6.168   3.439 -21.980  0.00  0.00    -0.387 OA
ATOM     19  H   UNL     1      -6.873   2.991 -22.475  0.00  0.00    +0.210 HD
ENDBRANCH   8  18
TORSDOF 1
ENDMDL
MODEL 3
REMARK VINA RESULT:    -9.720      1.439      2.087
REMARK INTER + INTRA:         -10.004
REMARK INTER:                 -10.004
REMARK INTRA:                   0.000
REMARK UNBOUND:                 0.000
REMARK  Name = C=C1C(=O)O[C@@H]2/C=C(\C)[C@@H](O)C/C=C(\C)CC[C@H]12                 ZINC000105223888
REMARK  3 active torsions:
REMARK  status: ('A' for Active; 'I' for Inactive)
REMARK    1  A    between atoms: C_8  and  C_9
REMARK    2  A    between atoms: C_10  and  O_11
REMARK    3  A    between atoms: C_14  and  C_15
REMARK                            x       y       z     vdW  Elec       q    Type
REMARK                         _______ _______ _______ _____ _____    ______ ____
ROOT
ATOM      1  C   UNL     1       2.097   2.880 -23.867  0.00  0.00    +0.020 C 
ATOM      2  C   UNL     1       0.848   3.193 -24.059  0.00  0.00    +0.036 C 
ATOM      3  C   UNL     1       0.366   3.814 -25.099  0.00  0.00    +0.336 C 
ATOM      4  O   UNL     1      -0.919   3.947 -24.933  0.00  0.00    -0.453 OA
ATOM      5  C   UNL     1      -1.231   3.406 -23.788  0.00  0.00    +0.207 C 
ATOM      6  C   UNL     1      -2.239   3.292 -23.236  0.00  0.00    +0.019 C 
ATOM      7  C   UNL     1      -3.350   3.737 -23.729  0.00  0.00    -0.045 C 
ATOM      8  C   UNL     1      -4.529   3.578 -23.035  0.00  0.00    +0.144 C 
ATOM      9  C   UNL     1      -4.621   2.939 -21.773  0.00  0.00    +0.063 C 
ATOM     10  C   UNL     1      -3.562   2.412 -21.105  0.00  0.00    -0.025 C 
ATOM     11  C   UNL     1      -2.497   2.519 -21.661  0.00  0.00    -0.076 C 
ATOM     12  C   UNL     1      -1.335   2.101 -21.238  0.00  0.00    +0.031 C 
ATOM     13  C   UNL     1      -0.178   2.303 -22.006  0.00  0.00    +0.016 C 
ATOM     14  C   UNL     1      -2.547   3.005 -22.582  0.00  0.00    +0.039 C 
ATOM     15  C   UNL     1      -3.356   4.341 -24.892  0.00  0.00    +0.041 C 
ATOM     16  O   UNL     1       1.047   4.232 -26.129  0.00  0.00    -0.245 OA
ATOM     17  C   UNL     1      -0.143   2.942 -23.249  0.00  0.00    +0.070 C 
ENDROOT
BRANCH   8  18
ATOM     18  O   UNL     1      -5.629   4.045 -23.574  0.00  0.00    -0.387 OA
ATOM     19  H   UNL     1      -5.438   4.374 -24.466  0.00  0.00    +0.210 HD
ENDBRANCH   8  18
TORSDOF 1
ENDMDL
MODEL 4
REMARK VINA RESULT:    -9.487      1.157      4.586
REMARK INTER + INTRA:          -9.764
REMARK INTER:                  -9.764
REMARK INTRA:                   0.000
REMARK UNBOUND:                 0.000
REMARK  Name = C=C1C(=O)O[C@@H]2/C=C(\C)[C@@H](O)C/C=C(\C)CC[C@H]12                 ZINC000105223888
REMARK  3 active torsions:
REMARK  status: ('A' for Active; 'I' for Inactive)
REMARK    1  A    between atoms: C_8  and  C_9
REMARK    2  A    between atoms: C_10  and  O_11
REMARK    3  A    between atoms: C_14  and  C_15
REMARK                            x       y       z     vdW  Elec       q    Type
REMARK                         _______ _______ _______ _____ _____    ______ ____
ROOT
ATOM      1  C   UNL     1      -5.192   3.746 -23.248  0.00  0.00    +0.020 C 
ATOM      2  C   UNL     1      -3.962   3.694 -23.670  0.00  0.00    +0.036 C 
ATOM      3  C   UNL     1      -3.508   4.221 -24.773  0.00  0.00    +0.336 C 
ATOM      4  O   UNL     1      -2.234   3.961 -24.853  0.00  0.00    -0.453 OA
ATOM      5  C   UNL     1      -1.901   3.272 -23.798  0.00  0.00    +0.207 C 
ATOM      6  C   UNL     1      -0.892   2.829 -23.451  0.00  0.00    +0.019 C 
ATOM      7  C   UNL     1       0.195   2.965 -24.139  0.00  0.00    -0.045 C 
ATOM      8  C   UNL     1       1.376   2.420 -23.686  0.00  0.00    +0.144 C 
ATOM      9  C   UNL     1       1.494   1.693 -22.475  0.00  0.00    +0.063 C 
ATOM     10  C   UNL     1       0.462   1.450 -21.625  0.00  0.00    -0.025 C 
ATOM     11  C   UNL     1      -0.603   1.903 -21.966  0.00  0.00    -0.076 C 
ATOM     12  C   UNL     1      -1.742   1.813 -21.336  0.00  0.00    +0.031 C 
ATOM     13  C   UNL     1      -2.903   2.398 -21.865  0.00  0.00    +0.016 C 
ATOM     14  C   UNL     1      -0.574   2.418 -22.872  0.00  0.00    +0.039 C 
ATOM     15  C   UNL     1       0.175   3.623 -25.272  0.00  0.00    +0.041 C 
ATOM     16  O   UNL     1      -4.204   4.893 -25.647  0.00  0.00    -0.245 OA
ATOM     17  C   UNL     1      -2.965   3.107 -23.069  0.00  0.00    +0.070 C 
ENDROOT
BRANCH   8  18
ATOM     18  O   UNL     1       2.451   2.583 -24.418  0.00  0.00    -0.387 OA
ATOM     19  H   UNL     1       2.683   1.743 -24.843  0.00  0.00    +0.210 HD
ENDBRANCH   8  18
TORSDOF 1
ENDMDL
MODEL 5
REMARK VINA RESULT:    -9.223      1.796      4.985
REMARK INTER + INTRA:          -9.493
REMARK INTER:                  -9.493
REMARK INTRA:                   0.000
REMARK UNBOUND:                 0.000
REMARK  Name = C=C1C(=O)O[C@@H]2/C=C(\C)[C@@H](O)C/C=C(\C)CC[C@H]12                 ZINC000105223888
REMARK  3 active torsions:
REMARK  status: ('A' for Active; 'I' for Inactive)
REMARK    1  A    between atoms: C_8  and  C_9
REMARK    2  A    between atoms: C_10  and  O_11
REMARK    3  A    between atoms: C_14  and  C_15
REMARK                            x       y       z     vdW  Elec       q    Type
REMARK                         _______ _______ _______ _____ _____    ______ ____
ROOT
ATOM      1  C   UNL     1      -5.367   3.428 -22.606  0.00  0.00    +0.020 C 
ATOM      2  C   UNL     1      -4.144   3.054 -22.366  0.00  0.00    +0.036 C 
ATOM      3  C   UNL     1      -3.720   2.477 -21.276  0.00  0.00    +0.336 C 
ATOM      4  O   UNL     1      -2.444   2.255 -21.403  0.00  0.00    -0.453 OA
ATOM      5  C   UNL     1      -2.077   2.695 -22.575  0.00  0.00    +0.207 C 
ATOM      6  C   UNL     1      -1.054   2.709 -23.110  0.00  0.00    +0.019 C 
ATOM      7  C   UNL     1       0.018   2.232 -22.564  0.00  0.00    -0.045 C 
ATOM      8  C   UNL     1       1.217   2.271 -23.240  0.00  0.00    +0.144 C 
ATOM      9  C   UNL     1       1.372   2.814 -24.539  0.00  0.00    +0.063 C 
ATOM     10  C   UNL     1       0.361   3.358 -25.266  0.00  0.00    -0.025 C 
ATOM     11  C   UNL     1      -0.720   3.355 -24.728  0.00  0.00    -0.076 C 
ATOM     12  C   UNL     1      -1.845   3.813 -25.204  0.00  0.00    +0.031 C 
ATOM     13  C   UNL     1      -3.027   3.736 -24.450  0.00  0.00    +0.016 C 
ATOM     14  C   UNL     1      -0.717   2.931 -23.775  0.00  0.00    +0.039 C 
ATOM     15  C   UNL     1      -0.036   1.710 -21.362  0.00  0.00    +0.041 C 
ATOM     16  O   UNL     1      -4.446   2.173 -20.236  0.00  0.00    -0.245 OA
ATOM     17  C   UNL     1      -3.124   3.187 -23.168  0.00  0.00    +0.070 C 
ENDROOT
BRANCH   8  18
ATOM     18  O   UNL     1       2.276   1.775 -22.646  0.00  0.00    -0.387 OA
ATOM     19  H   UNL     1       2.388   2.198 -21.780  0.00  0.00    +0.210 HD
ENDBRANCH   8  18
TORSDOF 1
ENDMDL
MODEL 6
REMARK VINA RESULT:    -8.856      2.496      4.262
REMARK INTER + INTRA:          -9.115
REMARK INTER:                  -9.115
REMARK INTRA:                   0.000
REMARK UNBOUND:                 0.000
REMARK  Name = C=C1C(=O)O[C@@H]2/C=C(\C)[C@@H](O)C/C=C(\C)CC[C@H]12                 ZINC000105223888
REMARK  3 active torsions:
REMARK  status: ('A' for Active; 'I' for Inactive)
REMARK    1  A    between atoms: C_8  and  C_9
REMARK    2  A    between atoms: C_10  and  O_11
REMARK    3  A    between atoms: C_14  and  C_15
REMARK                            x       y       z     vdW  Elec       q    Type
REMARK                         _______ _______ _______ _____ _____    ______ ____
ROOT
ATOM      1  C   UNL     1       4.861   2.270 -22.371  0.00  0.00    +0.020 C 
ATOM      2  C   UNL     1       3.581   2.079 -22.234  0.00  0.00    +0.036 C 
ATOM      3  C   UNL     1       3.016   1.050 -21.666  0.00  0.00    +0.336 C 
ATOM      4  O   UNL     1       1.725   1.214 -21.719  0.00  0.00    -0.453 OA
ATOM      5  C   UNL     1       1.492   2.348 -22.320  0.00  0.00    +0.207 C 
ATOM      6  C   UNL     1       0.509   2.893 -22.585  0.00  0.00    +0.019 C 
ATOM      7  C   UNL     1      -0.653   2.405 -22.292  0.00  0.00    -0.045 C 
ATOM      8  C   UNL     1      -1.798   3.092 -22.629  0.00  0.00    +0.144 C 
ATOM      9  C   UNL     1      -1.801   4.341 -23.298  0.00  0.00    +0.063 C 
ATOM     10  C   UNL     1      -0.679   5.003 -23.684  0.00  0.00    -0.025 C 
ATOM     11  C   UNL     1       0.362   4.452 -23.417  0.00  0.00    -0.076 C 
ATOM     12  C   UNL     1       1.570   4.871 -23.675  0.00  0.00    +0.031 C 
ATOM     13  C   UNL     1       2.688   4.111 -23.298  0.00  0.00    +0.016 C 
ATOM     14  C   UNL     1       0.244   3.541 -22.926  0.00  0.00    +0.039 C 
ATOM     15  C   UNL     1      -0.743   1.254 -21.672  0.00  0.00    +0.041 C 
ATOM     16  O   UNL     1       3.633   0.031 -21.137  0.00  0.00    -0.245 OA
ATOM     17  C   UNL     1       2.634   2.881 -22.637  0.00  0.00    +0.070 C 
ENDROOT
BRANCH   8  18
ATOM     18  O   UNL     1      -2.953   2.558 -22.311  0.00  0.00    -0.387 OA
ATOM     19  H   UNL     1      -3.333   2.123 -23.090  0.00  0.00    +0.210 HD
ENDBRANCH   8  18
TORSDOF 1
ENDMDL
MODEL 7
REMARK VINA RESULT:    -8.477      1.478      2.353
REMARK INTER + INTRA:          -8.725
REMARK INTER:                  -8.725
REMARK INTRA:                   0.000
REMARK UNBOUND:                 0.000
REMARK  Name = C=C1C(=O)O[C@@H]2/C=C(\C)[C@@H](O)C/C=C(\C)CC[C@H]12                 ZINC000105223888
REMARK  3 active torsions:
REMARK  status: ('A' for Active; 'I' for Inactive)
REMARK    1  A    between atoms: C_8  and  C_9
REMARK    2  A    between atoms: C_10  and  O_11
REMARK    3  A    between atoms: C_14  and  C_15
REMARK                            x       y       z     vdW  Elec       q    Type
REMARK                         _______ _______ _______ _____ _____    ______ ____
ROOT
ATOM      1  C   UNL     1       3.276   1.104 -22.047  0.00  0.00    +0.020 C 
ATOM      2  C   UNL     1       2.364   1.688 -22.768  0.00  0.00    +0.036 C 
ATOM      3  C   UNL     1       2.538   2.198 -23.955  0.00  0.00    +0.336 C 
ATOM      4  O   UNL     1       1.401   2.693 -24.355  0.00  0.00    -0.453 OA
ATOM      5  C   UNL     1       0.523   2.488 -23.412  0.00  0.00    +0.207 C 
ATOM      6  C   UNL     1      -0.598   2.752 -23.329  0.00  0.00    +0.019 C 
ATOM      7  C   UNL     1      -1.234   3.367 -24.273  0.00  0.00    -0.045 C 
ATOM      8  C   UNL     1      -2.572   3.662 -24.131  0.00  0.00    +0.144 C 
ATOM      9  C   UNL     1      -3.333   3.329 -22.983  0.00  0.00    +0.063 C 
ATOM     10  C   UNL     1      -2.836   2.685 -21.895  0.00  0.00    -0.025 C 
ATOM     11  C   UNL     1      -1.665   2.397 -21.958  0.00  0.00    -0.076 C 
ATOM     12  C   UNL     1      -0.949   1.782 -21.057  0.00  0.00    +0.031 C 
ATOM     13  C   UNL     1       0.411   1.518 -21.280  0.00  0.00    +0.016 C 
ATOM     14  C   UNL     1      -1.205   2.690 -22.846  0.00  0.00    +0.039 C 
ATOM     15  C   UNL     1      -0.605   3.712 -25.371  0.00  0.00    +0.041 C 
ATOM     16  O   UNL     1       3.653   2.213 -24.629  0.00  0.00    -0.245 OA
ATOM     17  C   UNL     1       1.116   1.869 -22.435  0.00  0.00    +0.070 C 
ENDROOT
BRANCH   8  18
ATOM     18  O   UNL     1      -3.174   4.286 -25.114  0.00  0.00    -0.387 OA
ATOM     19  H   UNL     1      -3.424   5.178 -24.825  0.00  0.00    +0.210 HD
ENDBRANCH   8  18
TORSDOF 1
ENDMDL
MODEL 8
REMARK VINA RESULT:    -8.195      2.003      3.977
REMARK INTER + INTRA:          -8.434
REMARK INTER:                  -8.434
REMARK INTRA:                   0.000
REMARK UNBOUND:                 0.000
REMARK  Name = C=C1C(=O)O[C@@H]2/C=C(\C)[C@@H](O)C/C=C(\C)CC[C@H]12                 ZINC000105223888
REMARK  3 active torsions:
REMARK  status: ('A' for Active; 'I' for Inactive)
REMARK    1  A    between atoms: C_8  and  C_9
REMARK    2  A    between atoms: C_10  and  O_11
REMARK    3  A    between atoms: C_14  and  C_15
REMARK                            x       y       z     vdW  Elec       q    Type
REMARK                         _______ _______ _______ _____ _____    ______ ____
ROOT
ATOM      1  C   UNL     1      -4.378   2.661 -19.903  0.00  0.00    +0.020 C 
ATOM      2  C   UNL     1      -4.295   2.854 -21.188  0.00  0.00    +0.036 C 
ATOM      3  C   UNL     1      -5.299   3.004 -22.005  0.00  0.00    +0.336 C 
ATOM      4  O   UNL     1      -4.824   3.174 -23.206  0.00  0.00    -0.453 OA
ATOM      5  C   UNL     1      -3.522   3.128 -23.130  0.00  0.00    +0.207 C 
ATOM      6  C   UNL     1      -2.698   3.227 -23.932  0.00  0.00    +0.019 C 
ATOM      7  C   UNL     1      -2.969   3.424 -25.181  0.00  0.00    -0.045 C 
ATOM      8  C   UNL     1      -1.952   3.537 -26.103  0.00  0.00    +0.144 C 
ATOM      9  C   UNL     1      -0.577   3.451 -25.773  0.00  0.00    +0.063 C 
ATOM     10  C   UNL     1      -0.104   3.247 -24.515  0.00  0.00    -0.025 C 
ATOM     11  C   UNL     1      -0.948   3.140 -23.659  0.00  0.00    -0.076 C 
ATOM     12  C   UNL     1      -0.762   2.942 -22.382  0.00  0.00    +0.031 C 
ATOM     13  C   UNL     1      -1.854   2.838 -21.507  0.00  0.00    +0.016 C 
ATOM     14  C   UNL     1      -1.924   3.220 -24.014  0.00  0.00    +0.039 C 
ATOM     15  C   UNL     1      -4.216   3.516 -25.575  0.00  0.00    +0.041 C 
ATOM     16  O   UNL     1      -6.562   2.989 -21.682  0.00  0.00    -0.245 OA
ATOM     17  C   UNL     1      -3.197   2.931 -21.887  0.00  0.00    +0.070 C 
ENDROOT
BRANCH   8  18
ATOM     18  O   UNL     1      -2.276   3.735 -27.358  0.00  0.00    -0.387 OA
ATOM     19  H   UNL     1      -1.895   4.575 -27.661  0.00  0.00    +0.210 HD
ENDBRANCH   8  18
TORSDOF 1
ENDMDL
MODEL 9
REMARK VINA RESULT:    -8.108      2.044      5.780
REMARK INTER + INTRA:          -8.345
REMARK INTER:                  -8.345
REMARK INTRA:                   0.000
REMARK UNBOUND:                 0.000
REMARK  Name = C=C1C(=O)O[C@@H]2/C=C(\C)[C@@H](O)C/C=C(\C)CC[C@H]12                 ZINC000105223888
REMARK  3 active torsions:
REMARK  status: ('A' for Active; 'I' for Inactive)
REMARK    1  A    between atoms: C_8  and  C_9
REMARK    2  A    between atoms: C_10  and  O_11
REMARK    3  A    between atoms: C_14  and  C_15
REMARK                            x       y       z     vdW  Elec       q    Type
REMARK                         _______ _______ _______ _____ _____    ______ ____
ROOT
ATOM      1  C   UNL     1      -2.535   2.243 -21.657  0.00  0.00    +0.020 C 
ATOM      2  C   UNL     1      -1.451   2.303 -22.376  0.00  0.00    +0.036 C 
ATOM      3  C   UNL     1      -1.386   2.633 -23.635  0.00  0.00    +0.336 C 
ATOM      4  O   UNL     1      -0.139   2.579 -24.005  0.00  0.00    -0.453 OA
ATOM      5  C   UNL     1       0.568   2.214 -22.972  0.00  0.00    +0.207 C 
ATOM      6  C   UNL     1       1.701   2.038 -22.834  0.00  0.00    +0.019 C 
ATOM      7  C   UNL     1       2.547   2.194 -23.801  0.00  0.00    -0.045 C 
ATOM      8  C   UNL     1       3.890   1.972 -23.590  0.00  0.00    +0.144 C 
ATOM      9  C   UNL     1       4.436   1.571 -22.346  0.00  0.00    +0.063 C 
ATOM     10  C   UNL     1       3.703   1.359 -21.222  0.00  0.00    -0.025 C 
ATOM     11  C   UNL     1       2.515   1.537 -21.340  0.00  0.00    -0.076 C 
ATOM     12  C   UNL     1       1.597   1.403 -20.423  0.00  0.00    +0.031 C 
ATOM     13  C   UNL     1       0.247   1.649 -20.719  0.00  0.00    +0.016 C 
ATOM     14  C   UNL     1       2.225   1.830 -22.298  0.00  0.00    +0.039 C 
ATOM     15  C   UNL     1       2.127   2.564 -24.986  0.00  0.00    +0.041 C 
ATOM     16  O   UNL     1      -2.393   2.961 -24.396  0.00  0.00    -0.245 OA
ATOM     17  C   UNL     1      -0.240   2.044 -21.968  0.00  0.00    +0.070 C 
ENDROOT
BRANCH   8  18
ATOM     18  O   UNL     1       4.709   2.142 -24.600  0.00  0.00    -0.387 OA
ATOM     19  H   UNL     1       5.148   1.302 -24.805  0.00  0.00    +0.210 HD
ENDBRANCH   8  18
TORSDOF 1
ENDMDL
