MODEL 1
REMARK VINA RESULT:   -11.731      0.000      0.000
REMARK INTER + INTRA:         -14.629
REMARK INTER:                 -13.807
REMARK INTRA:                  -0.822
REMARK UNBOUND:                -0.498
REMARK  Name = CCOC(=O)[C@H]1C[C@@]23C=C[C@H]1C[C@@]21CCN(C)[C@H]3Cc2ccc(OC)c(O)c21 ZINC000253504525
REMARK  8 active torsions:
REMARK  status: ('A' for Active; 'I' for Inactive)
REMARK    1  A    between atoms: C_1  and  C_2
REMARK    2  A    between atoms: C_2  and  O_3
REMARK    3  A    between atoms: O_3  and  C_4
REMARK    4  A    between atoms: C_4  and  C_6
REMARK    5  A    between atoms: N_16  and  C_17
REMARK    6  A    between atoms: C_23  and  O_24
REMARK    7  A    between atoms: O_24  and  C_25
REMARK    8  A    between atoms: C_26  and  O_27
REMARK                            x       y       z     vdW  Elec       q    Type
REMARK                         _______ _______ _______ _____ _____    ______ ____
ROOT
ATOM      1  C   UNL     1       0.312   1.953 -22.176  0.00  0.00    +0.106 C 
ATOM      2  C   UNL     1      -0.695   2.064 -21.416  0.00  0.00    +0.032 C 
ATOM      3  C   UNL     1      -2.031   2.474 -21.704  0.00  0.00    +0.043 C 
ATOM      4  C   UNL     1      -1.309   2.098 -20.782  0.00  0.00    -0.018 C 
ATOM      5  C   UNL     1      -0.326   1.889 -21.027  0.00  0.00    -0.026 C 
ATOM      6  C   UNL     1      -3.242   2.746 -21.478  0.00  0.00    +0.079 C 
ATOM      7  C   UNL     1      -4.352   3.229 -22.423  0.00  0.00    +0.090 C 
ATOM      8  C   UNL     1      -4.101   3.390 -23.551  0.00  0.00    -0.035 A 
ATOM      9  C   UNL     1      -4.973   3.774 -24.320  0.00  0.00    +0.008 A 
ATOM     10  C   UNL     1      -4.707   3.946 -25.523  0.00  0.00    +0.049 A 
ATOM     11  C   UNL     1      -3.548   3.728 -25.952  0.00  0.00    +0.162 A 
ATOM     12  C   UNL     1      -2.659   3.340 -25.185  0.00  0.00    +0.163 A 
ATOM     13  C   UNL     1      -2.901   3.165 -24.001  0.00  0.00    +0.008 A 
ATOM     14  N   UNL     1      -3.711   3.008 -22.164  0.00  0.00    +0.236 N 
ATOM     15  H   UNL     1      -4.427   3.328 -22.816  0.00  0.00    +0.203 HD
ATOM     16  C   UNL     1      -3.646   2.659 -20.517  0.00  0.00    +0.190 C 
ATOM     17  C   UNL     1      -3.323   3.129 -23.271  0.00  0.00    +0.132 C 
ATOM     18  C   UNL     1      -2.217   2.931 -23.732  0.00  0.00    +0.063 C 
ATOM     19  C   UNL     1      -1.557   2.649 -23.191  0.00  0.00    +0.019 C 
ATOM     20  C   UNL     1      -0.284   2.365 -23.447  0.00  0.00    +0.021 C 
ATOM     21  C   UNL     1       0.113   2.080 -22.546  0.00  0.00    +0.026 C 
ENDROOT
BRANCH   1  22
ATOM     22  C   UNL     1       2.309   1.826 -24.153  0.00  0.00    +0.311 C 
ATOM     23  O   UNL     1       2.463   0.801 -24.914  0.00  0.00    -0.251 OA
BRANCH  22  24
ATOM     24  O   UNL     1       3.216   2.805 -24.433  0.00  0.00    -0.465 OA
BRANCH  24  26
ATOM     25  C   UNL     1       2.631   4.749 -23.288  0.00  0.00    +0.048 C 
ATOM     26  C   UNL     1       3.422   3.765 -23.491  0.00  0.00    +0.229 C 
ENDBRANCH  24  26
ENDBRANCH  22  24
ENDBRANCH   1  22
BRANCH  12  27
ATOM     27  O   UNL     1      -1.497   3.110 -25.558  0.00  0.00    -0.503 OA
ATOM     28  H   UNL     1      -0.937   2.566 -25.040  0.00  0.00    +0.292 HD
ENDBRANCH  12  27
BRANCH  11  29
ATOM     29  O   UNL     1      -3.006   3.808 -27.057  0.00  0.00    -0.491 OA
ATOM     30  C   UNL     1      -3.439   3.451 -28.073  0.00  0.00    +0.277 C 
ENDBRANCH  11  29
TORSDOF 5
ENDMDL
MODEL 2
REMARK VINA RESULT:    -9.872      2.037      3.745
REMARK INTER + INTRA:         -12.389
REMARK INTER:                 -12.452
REMARK INTRA:                   0.062
REMARK UNBOUND:                -0.498
REMARK  Name = CCOC(=O)[C@H]1C[C@@]23C=C[C@H]1C[C@@]21CCN(C)[C@H]3Cc2ccc(OC)c(O)c21 ZINC000253504525
REMARK  8 active torsions:
REMARK  status: ('A' for Active; 'I' for Inactive)
REMARK    1  A    between atoms: C_1  and  C_2
REMARK    2  A    between atoms: C_2  and  O_3
REMARK    3  A    between atoms: O_3  and  C_4
REMARK    4  A    between atoms: C_4  and  C_6
REMARK    5  A    between atoms: N_16  and  C_17
REMARK    6  A    between atoms: C_23  and  O_24
REMARK    7  A    between atoms: O_24  and  C_25
REMARK    8  A    between atoms: C_26  and  O_27
REMARK                            x       y       z     vdW  Elec       q    Type
REMARK                         _______ _______ _______ _____ _____    ______ ____
ROOT
ATOM      1  C   UNL     1       0.568   3.170 -24.591  0.00  0.00    +0.106 C 
ATOM      2  C   UNL     1      -0.318   3.405 -25.465  0.00  0.00    +0.032 C 
ATOM      3  C   UNL     1      -1.733   3.539 -25.336  0.00  0.00    +0.043 C 
ATOM      4  C   UNL     1      -0.827   3.573 -26.167  0.00  0.00    -0.018 C 
ATOM      5  C   UNL     1       0.129   3.411 -25.807  0.00  0.00    -0.026 C 
ATOM      6  C   UNL     1      -2.925   3.727 -25.705  0.00  0.00    +0.079 C 
ATOM      7  C   UNL     1      -4.231   3.741 -24.898  0.00  0.00    +0.090 C 
ATOM      8  C   UNL     1      -4.184   3.553 -23.747  0.00  0.00    -0.035 A 
ATOM      9  C   UNL     1      -5.214   3.560 -23.086  0.00  0.00    +0.008 A 
ATOM     10  C   UNL     1      -5.166   3.359 -21.860  0.00  0.00    +0.049 A 
ATOM     11  C   UNL     1      -4.065   3.149 -21.296  0.00  0.00    +0.162 A 
ATOM     12  C   UNL     1      -3.017   3.140 -21.953  0.00  0.00    +0.163 A 
ATOM     13  C   UNL     1      -3.044   3.335 -23.158  0.00  0.00    +0.008 A 
ATOM     14  N   UNL     1      -3.530   3.694 -25.079  0.00  0.00    +0.236 N 
ATOM     15  H   UNL     1      -4.380   3.697 -24.516  0.00  0.00    +0.203 HD
ATOM     16  C   UNL     1      -3.158   3.912 -26.708  0.00  0.00    +0.190 C 
ATOM     17  C   UNL     1      -3.339   3.490 -23.933  0.00  0.00    +0.132 C 
ATOM     18  C   UNL     1      -2.298   3.283 -23.344  0.00  0.00    +0.063 C 
ATOM     19  C   UNL     1      -1.525   3.272 -23.803  0.00  0.00    +0.019 C 
ATOM     20  C   UNL     1      -0.275   3.072 -23.398  0.00  0.00    +0.021 C 
ATOM     21  C   UNL     1       0.295   3.144 -24.246  0.00  0.00    +0.026 C 
ENDROOT
BRANCH   1  22
ATOM     22  C   UNL     1       2.236   2.638 -22.389  0.00  0.00    +0.311 C 
ATOM     23  O   UNL     1       1.934   1.771 -21.487  0.00  0.00    -0.251 OA
BRANCH  22  24
ATOM     24  O   UNL     1       3.434   3.237 -22.134  0.00  0.00    -0.465 OA
BRANCH  24  26
ATOM     25  C   UNL     1       3.038   5.319 -23.104  0.00  0.00    +0.048 C 
ATOM     26  C   UNL     1       3.786   4.301 -22.906  0.00  0.00    +0.229 C 
ENDBRANCH  24  26
ENDBRANCH  22  24
ENDBRANCH   1  22
BRANCH  12  27
ATOM     27  O   UNL     1      -1.902   2.937 -21.444  0.00  0.00    -0.503 OA
ATOM     28  H   UNL     1      -1.353   2.255 -21.774  0.00  0.00    +0.292 HD
ENDBRANCH  12  27
BRANCH  11  29
ATOM     29  O   UNL     1      -3.717   2.927 -20.134  0.00  0.00    -0.491 OA
ATOM     30  C   UNL     1      -3.315   3.700 -19.366  0.00  0.00    +0.277 C 
ENDBRANCH  11  29
TORSDOF 5
ENDMDL
MODEL 3
REMARK VINA RESULT:    -9.760      2.786      6.457
REMARK INTER + INTRA:         -12.255
REMARK INTER:                 -11.508
REMARK INTRA:                  -0.747
REMARK UNBOUND:                -0.498
REMARK  Name = CCOC(=O)[C@H]1C[C@@]23C=C[C@H]1C[C@@]21CCN(C)[C@H]3Cc2ccc(OC)c(O)c21 ZINC000253504525
REMARK  8 active torsions:
REMARK  status: ('A' for Active; 'I' for Inactive)
REMARK    1  A    between atoms: C_1  and  C_2
REMARK    2  A    between atoms: C_2  and  O_3
REMARK    3  A    between atoms: O_3  and  C_4
REMARK    4  A    between atoms: C_4  and  C_6
REMARK    5  A    between atoms: N_16  and  C_17
REMARK    6  A    between atoms: C_23  and  O_24
REMARK    7  A    between atoms: O_24  and  C_25
REMARK    8  A    between atoms: C_26  and  O_27
REMARK                            x       y       z     vdW  Elec       q    Type
REMARK                         _______ _______ _______ _____ _____    ______ ____
ROOT
ATOM      1  C   UNL     1      -2.224   3.902 -23.089  0.00  0.00    +0.106 C 
ATOM      2  C   UNL     1      -1.581   4.133 -24.155  0.00  0.00    +0.032 C 
ATOM      3  C   UNL     1      -0.265   3.745 -24.545  0.00  0.00    +0.043 C 
ATOM      4  C   UNL     1      -1.250   4.365 -24.940  0.00  0.00    -0.018 C 
ATOM      5  C   UNL     1      -2.055   4.406 -24.292  0.00  0.00    -0.026 C 
ATOM      6  C   UNL     1       0.754   3.654 -25.284  0.00  0.00    +0.079 C 
ATOM      7  C   UNL     1       2.100   2.953 -25.051  0.00  0.00    +0.090 C 
ATOM      8  C   UNL     1       2.276   2.392 -24.042  0.00  0.00    -0.035 A 
ATOM      9  C   UNL     1       3.343   1.828 -23.837  0.00  0.00    +0.008 A 
ATOM     10  C   UNL     1       3.532   1.230 -22.763  0.00  0.00    +0.049 A 
ATOM     11  C   UNL     1       2.633   1.203 -21.888  0.00  0.00    +0.162 A 
ATOM     12  C   UNL     1       1.551   1.770 -22.083  0.00  0.00    +0.163 A 
ATOM     13  C   UNL     1       1.347   2.362 -23.131  0.00  0.00    +0.008 A 
ATOM     14  N   UNL     1       1.426   3.204 -24.959  0.00  0.00    +0.236 N 
ATOM     15  H   UNL     1       2.309   2.729 -24.774  0.00  0.00    +0.203 HD
ATOM     16  C   UNL     1       0.777   4.098 -26.231  0.00  0.00    +0.190 C 
ATOM     17  C   UNL     1       1.469   2.679 -23.904  0.00  0.00    +0.132 C 
ATOM     18  C   UNL     1       0.630   2.626 -23.028  0.00  0.00    +0.063 C 
ATOM     19  C   UNL     1      -0.163   3.031 -23.150  0.00  0.00    +0.019 C 
ATOM     20  C   UNL     1      -1.227   3.117 -22.359  0.00  0.00    +0.021 C 
ATOM     21  C   UNL     1      -1.910   3.669 -22.888  0.00  0.00    +0.026 C 
ENDROOT
BRANCH   1  22
ATOM     22  C   UNL     1      -3.329   3.192 -20.601  0.00  0.00    +0.311 C 
ATOM     23  O   UNL     1      -2.936   3.718 -19.495  0.00  0.00    -0.251 OA
BRANCH  22  24
ATOM     24  O   UNL     1      -4.320   2.276 -20.402  0.00  0.00    -0.465 OA
BRANCH  24  26
ATOM     25  C   UNL     1      -5.617   3.252 -22.074  0.00  0.00    +0.048 C 
ATOM     26  C   UNL     1      -5.387   2.306 -21.244  0.00  0.00    +0.229 C 
ENDBRANCH  24  26
ENDBRANCH  22  24
ENDBRANCH   1  22
BRANCH  12  27
ATOM     27  O   UNL     1       0.629   1.773 -21.250  0.00  0.00    -0.503 OA
ATOM     28  H   UNL     1      -0.218   2.093 -21.490  0.00  0.00    +0.292 HD
ENDBRANCH  12  27
BRANCH  11  29
ATOM     29  O   UNL     1       2.536   0.706 -20.763  0.00  0.00    -0.491 OA
ATOM     30  C   UNL     1       3.403   0.323 -20.093  0.00  0.00    +0.277 C 
ENDBRANCH  11  29
TORSDOF 5
ENDMDL
MODEL 4
REMARK VINA RESULT:    -9.707      2.625      4.155
REMARK INTER + INTRA:         -12.191
REMARK INTER:                 -11.643
REMARK INTRA:                  -0.548
REMARK UNBOUND:                -0.498
REMARK  Name = CCOC(=O)[C@H]1C[C@@]23C=C[C@H]1C[C@@]21CCN(C)[C@H]3Cc2ccc(OC)c(O)c21 ZINC000253504525
REMARK  8 active torsions:
REMARK  status: ('A' for Active; 'I' for Inactive)
REMARK    1  A    between atoms: C_1  and  C_2
REMARK    2  A    between atoms: C_2  and  O_3
REMARK    3  A    between atoms: O_3  and  C_4
REMARK    4  A    between atoms: C_4  and  C_6
REMARK    5  A    between atoms: N_16  and  C_17
REMARK    6  A    between atoms: C_23  and  O_24
REMARK    7  A    between atoms: O_24  and  C_25
REMARK    8  A    between atoms: C_26  and  O_27
REMARK                            x       y       z     vdW  Elec       q    Type
REMARK                         _______ _______ _______ _____ _____    ______ ____
ROOT
ATOM      1  C   UNL     1       2.365   2.185 -22.988  0.00  0.00    +0.106 C 
ATOM      2  C   UNL     1       2.041   2.749 -24.074  0.00  0.00    +0.032 C 
ATOM      3  C   UNL     1       0.766   3.176 -24.552  0.00  0.00    +0.043 C 
ATOM      4  C   UNL     1       1.955   3.136 -24.864  0.00  0.00    -0.018 C 
ATOM      5  C   UNL     1       2.595   2.708 -24.173  0.00  0.00    -0.026 C 
ATOM      6  C   UNL     1      -0.071   3.684 -25.347  0.00  0.00    +0.079 C 
ATOM      7  C   UNL     1      -1.591   3.864 -25.219  0.00  0.00    +0.090 C 
ATOM      8  C   UNL     1      -2.123   3.490 -24.250  0.00  0.00    -0.035 A 
ATOM      9  C   UNL     1      -3.333   3.625 -24.129  0.00  0.00    +0.008 A 
ATOM     10  C   UNL     1      -3.902   3.227 -23.097  0.00  0.00    +0.049 A 
ATOM     11  C   UNL     1      -3.239   2.688 -22.178  0.00  0.00    +0.162 A 
ATOM     12  C   UNL     1      -2.016   2.547 -22.288  0.00  0.00    +0.163 A 
ATOM     13  C   UNL     1      -1.440   2.931 -23.294  0.00  0.00    +0.008 A 
ATOM     14  N   UNL     1      -0.901   3.689 -25.080  0.00  0.00    +0.236 N 
ATOM     15  H   UNL     1      -1.909   3.794 -24.966  0.00  0.00    +0.203 HD
ATOM     16  C   UNL     1       0.228   4.073 -26.271  0.00  0.00    +0.190 C 
ATOM     17  C   UNL     1      -1.307   3.269 -24.055  0.00  0.00    +0.132 C 
ATOM     18  C   UNL     1      -0.708   2.742 -23.140  0.00  0.00    +0.063 C 
ATOM     19  C   UNL     1       0.182   2.631 -23.201  0.00  0.00    +0.019 C 
ATOM     20  C   UNL     1       1.050   2.092 -22.350  0.00  0.00    +0.021 C 
ATOM     21  C   UNL     1       1.960   2.167 -22.815  0.00  0.00    +0.026 C 
ENDROOT
BRANCH   1  22
ATOM     22  C   UNL     1       2.699   0.949 -20.483  0.00  0.00    +0.311 C 
ATOM     23  O   UNL     1       1.906   1.167 -19.494  0.00  0.00    -0.251 OA
BRANCH  22  24
ATOM     24  O   UNL     1       3.686   0.068 -20.155  0.00  0.00    -0.465 OA
BRANCH  24  26
ATOM     25  C   UNL     1       5.340   1.439 -21.058  0.00  0.00    +0.048 C 
ATOM     26  C   UNL     1       4.930   0.296 -20.655  0.00  0.00    +0.229 C 
ENDBRANCH  24  26
ENDBRANCH  22  24
ENDBRANCH   1  22
BRANCH  12  27
ATOM     27  O   UNL     1      -1.313   2.021 -21.408  0.00  0.00    -0.503 OA
ATOM     28  H   UNL     1      -0.404   2.235 -21.343  0.00  0.00    +0.292 HD
ENDBRANCH  12  27
BRANCH  11  29
ATOM     29  O   UNL     1      -3.519   2.212 -21.075  0.00  0.00    -0.491 OA
ATOM     30  C   UNL     1      -4.560   2.208 -20.561  0.00  0.00    +0.277 C 
ENDBRANCH  11  29
TORSDOF 5
ENDMDL
