MODEL 1
REMARK VINA RESULT:    -8.282      0.000      0.000
REMARK INTER + INTRA:          -8.438
REMARK INTER:                  -8.791
REMARK INTRA:                   0.354
REMARK UNBOUND:                 0.329
REMARK  Name = ZINC000000265517
REMARK  2 active torsions:
REMARK  status: ('A' for Active; 'I' for Inactive)
REMARK    1  A    between atoms: C_1  and  O_2
REMARK    2  A    between atoms: O_2  and  C_3
REMARK                            x       y       z     vdW  Elec       q    Type
REMARK                         _______ _______ _______ _____ _____    ______ ____
ROOT
ATOM      1  C   UNL     1      -2.707   2.685 -21.982  0.00  0.00    +0.142 A 
ATOM      2  C   UNL     1      -3.406   3.083 -23.003  0.00  0.00    +0.043 A 
ATOM      3  C   UNL     1      -4.633   3.480 -22.837  0.00  0.00    +0.013 A 
ATOM      4  C   UNL     1      -5.332   3.878 -23.858  0.00  0.00    +0.001 A 
ATOM      5  C   UNL     1      -4.803   3.880 -25.046  0.00  0.00    +0.002 A 
ATOM      6  C   UNL     1      -3.576   3.484 -25.213  0.00  0.00    +0.028 A 
ATOM      7  C   UNL     1      -2.878   3.086 -24.191  0.00  0.00    +0.078 A 
ATOM      8  N   UNL     1      -1.651   2.690 -24.358  0.00  0.00    -0.212 NA
ATOM      9  C   UNL     1      -0.952   2.292 -23.336  0.00  0.00    +0.231 A 
ATOM     10  O   UNL     1       0.269   1.856 -23.234  0.00  0.00    -0.445 OA
ATOM     11  C   UNL     1       0.495   1.585 -21.983  0.00  0.00    +0.198 A 
ATOM     12  C   UNL     1      -0.586   1.852 -21.312  0.00  0.00    +0.055 A 
ATOM     13  C   UNL     1      -1.481   2.289 -22.149  0.00  0.00    +0.082 A 
ENDROOT
BRANCH   1  15
ATOM     14  C   UNL     1      -3.143   3.738 -20.040  0.00  0.00    +0.277 C 
ATOM     15  O   UNL     1      -3.236   2.683 -20.795  0.00  0.00    -0.494 OA
ENDBRANCH   1  15
TORSDOF 1
ENDMDL
MODEL 2
REMARK VINA RESULT:    -7.936      1.792      3.135
REMARK INTER + INTRA:          -8.071
REMARK INTER:                  -8.409
REMARK INTRA:                   0.337
REMARK UNBOUND:                 0.329
REMARK  Name = ZINC000000265517
REMARK  2 active torsions:
REMARK  status: ('A' for Active; 'I' for Inactive)
REMARK    1  A    between atoms: C_1  and  O_2
REMARK    2  A    between atoms: O_2  and  C_3
REMARK                            x       y       z     vdW  Elec       q    Type
REMARK                         _______ _______ _______ _____ _____    ______ ____
ROOT
ATOM      1  C   UNL     1      -2.746   3.663 -24.414  0.00  0.00    +0.142 A 
ATOM      2  C   UNL     1      -3.556   3.412 -23.429  0.00  0.00    +0.043 A 
ATOM      3  C   UNL     1      -4.817   3.714 -23.531  0.00  0.00    +0.013 A 
ATOM      4  C   UNL     1      -5.627   3.462 -22.546  0.00  0.00    +0.001 A 
ATOM      5  C   UNL     1      -5.176   2.909 -21.459  0.00  0.00    +0.002 A 
ATOM      6  C   UNL     1      -3.916   2.607 -21.357  0.00  0.00    +0.028 A 
ATOM      7  C   UNL     1      -3.106   2.859 -22.342  0.00  0.00    +0.078 A 
ATOM      8  N   UNL     1      -1.846   2.557 -22.240  0.00  0.00    -0.212 NA
ATOM      9  C   UNL     1      -1.035   2.808 -23.225  0.00  0.00    +0.231 A 
ATOM     10  O   UNL     1       0.241   2.609 -23.375  0.00  0.00    -0.445 OA
ATOM     11  C   UNL     1       0.579   3.040 -24.553  0.00  0.00    +0.198 A 
ATOM     12  C   UNL     1      -0.488   3.504 -25.133  0.00  0.00    +0.055 A 
ATOM     13  C   UNL     1      -1.486   3.361 -24.312  0.00  0.00    +0.082 A 
ENDROOT
BRANCH   1  15
ATOM     14  C   UNL     1      -3.405   3.492 -26.560  0.00  0.00    +0.277 C 
ATOM     15  O   UNL     1      -3.196   4.216 -25.501  0.00  0.00    -0.494 OA
ENDBRANCH   1  15
TORSDOF 1
ENDMDL
MODEL 3
REMARK VINA RESULT:    -7.703      1.630      2.762
REMARK INTER + INTRA:          -7.825
REMARK INTER:                  -8.253
REMARK INTRA:                   0.428
REMARK UNBOUND:                 0.329
REMARK  Name = ZINC000000265517
REMARK  2 active torsions:
REMARK  status: ('A' for Active; 'I' for Inactive)
REMARK    1  A    between atoms: C_1  and  O_2
REMARK    2  A    between atoms: O_2  and  C_3
REMARK                            x       y       z     vdW  Elec       q    Type
REMARK                         _______ _______ _______ _____ _____    ______ ____
ROOT
ATOM      1  C   UNL     1      -1.938   3.383 -23.626  0.00  0.00    +0.142 A 
ATOM      2  C   UNL     1      -3.121   3.294 -23.095  0.00  0.00    +0.043 A 
ATOM      3  C   UNL     1      -4.145   3.827 -23.694  0.00  0.00    +0.013 A 
ATOM      4  C   UNL     1      -5.328   3.737 -23.164  0.00  0.00    +0.001 A 
ATOM      5  C   UNL     1      -5.488   3.114 -22.034  0.00  0.00    +0.002 A 
ATOM      6  C   UNL     1      -4.465   2.581 -21.435  0.00  0.00    +0.028 A 
ATOM      7  C   UNL     1      -3.282   2.670 -21.966  0.00  0.00    +0.078 A 
ATOM      8  N   UNL     1      -2.259   2.137 -21.367  0.00  0.00    -0.212 NA
ATOM      9  C   UNL     1      -1.075   2.227 -21.898  0.00  0.00    +0.231 A 
ATOM     10  O   UNL     1       0.087   1.791 -21.511  0.00  0.00    -0.445 OA
ATOM     11  C   UNL     1       0.965   2.144 -22.402  0.00  0.00    +0.198 A 
ATOM     12  C   UNL     1       0.346   2.799 -23.339  0.00  0.00    +0.055 A 
ATOM     13  C   UNL     1      -0.915   2.850 -23.027  0.00  0.00    +0.082 A 
ENDROOT
BRANCH   1  15
ATOM     14  C   UNL     1      -2.058   3.406 -25.875  0.00  0.00    +0.277 C 
ATOM     15  O   UNL     1      -1.778   4.007 -24.756  0.00  0.00    -0.494 OA
ENDBRANCH   1  15
TORSDOF 1
ENDMDL
MODEL 4
REMARK VINA RESULT:    -7.678      1.639      4.659
REMARK INTER + INTRA:          -7.798
REMARK INTER:                  -8.131
REMARK INTRA:                   0.333
REMARK UNBOUND:                 0.329
REMARK  Name = ZINC000000265517
REMARK  2 active torsions:
REMARK  status: ('A' for Active; 'I' for Inactive)
REMARK    1  A    between atoms: C_1  and  O_2
REMARK    2  A    between atoms: O_2  and  C_3
REMARK                            x       y       z     vdW  Elec       q    Type
REMARK                         _______ _______ _______ _____ _____    ______ ____
ROOT
ATOM      1  C   UNL     1      -2.449   3.368 -23.658  0.00  0.00    +0.142 A 
ATOM      2  C   UNL     1      -1.418   2.825 -23.081  0.00  0.00    +0.043 A 
ATOM      3  C   UNL     1      -0.248   2.889 -23.646  0.00  0.00    +0.013 A 
ATOM      4  C   UNL     1       0.782   2.347 -23.068  0.00  0.00    +0.001 A 
ATOM      5  C   UNL     1       0.643   1.740 -21.927  0.00  0.00    +0.002 A 
ATOM      6  C   UNL     1      -0.526   1.676 -21.362  0.00  0.00    +0.028 A 
ATOM      7  C   UNL     1      -1.556   2.219 -21.940  0.00  0.00    +0.078 A 
ATOM      8  N   UNL     1      -2.725   2.155 -21.375  0.00  0.00    -0.212 NA
ATOM      9  C   UNL     1      -3.757   2.697 -21.952  0.00  0.00    +0.231 A 
ATOM     10  O   UNL     1      -5.008   2.773 -21.607  0.00  0.00    -0.445 OA
ATOM     11  C   UNL     1      -5.642   3.425 -22.534  0.00  0.00    +0.198 A 
ATOM     12  C   UNL     1      -4.783   3.754 -23.453  0.00  0.00    +0.055 A 
ATOM     13  C   UNL     1      -3.618   3.304 -23.094  0.00  0.00    +0.082 A 
ENDROOT
BRANCH   1  15
ATOM     14  C   UNL     1      -2.596   3.351 -25.905  0.00  0.00    +0.277 C 
ATOM     15  O   UNL     1      -2.310   3.974 -24.800  0.00  0.00    -0.494 OA
ENDBRANCH   1  15
TORSDOF 1
ENDMDL
MODEL 5
REMARK VINA RESULT:    -7.663      1.568      2.447
REMARK INTER + INTRA:          -7.783
REMARK INTER:                  -8.146
REMARK INTRA:                   0.364
REMARK UNBOUND:                 0.329
REMARK  Name = ZINC000000265517
REMARK  2 active torsions:
REMARK  status: ('A' for Active; 'I' for Inactive)
REMARK    1  A    between atoms: C_1  and  O_2
REMARK    2  A    between atoms: O_2  and  C_3
REMARK                            x       y       z     vdW  Elec       q    Type
REMARK                         _______ _______ _______ _____ _____    ______ ____
ROOT
ATOM      1  C   UNL     1      -1.558   2.874 -22.547  0.00  0.00    +0.142 A 
ATOM      2  C   UNL     1      -2.843   3.063 -22.513  0.00  0.00    +0.043 A 
ATOM      3  C   UNL     1      -3.513   2.786 -21.433  0.00  0.00    +0.013 A 
ATOM      4  C   UNL     1      -4.799   2.975 -21.399  0.00  0.00    +0.001 A 
ATOM      5  C   UNL     1      -5.415   3.442 -22.445  0.00  0.00    +0.002 A 
ATOM      6  C   UNL     1      -4.745   3.720 -23.524  0.00  0.00    +0.028 A 
ATOM      7  C   UNL     1      -3.460   3.530 -23.558  0.00  0.00    +0.078 A 
ATOM      8  N   UNL     1      -2.791   3.808 -24.637  0.00  0.00    -0.212 NA
ATOM      9  C   UNL     1      -1.505   3.618 -24.672  0.00  0.00    +0.231 A 
ATOM     10  O   UNL     1      -0.622   3.811 -25.606  0.00  0.00    -0.445 OA
ATOM     11  C   UNL     1       0.540   3.463 -25.139  0.00  0.00    +0.198 A 
ATOM     12  C   UNL     1       0.375   3.055 -23.915  0.00  0.00    +0.055 A 
ATOM     13  C   UNL     1      -0.889   3.151 -23.626  0.00  0.00    +0.082 A 
ENDROOT
BRANCH   1  15
ATOM     14  C   UNL     1      -0.489   1.188 -21.506  0.00  0.00    +0.277 C 
ATOM     15  O   UNL     1      -0.942   2.407 -21.502  0.00  0.00    -0.494 OA
ENDBRANCH   1  15
TORSDOF 1
ENDMDL
MODEL 6
REMARK VINA RESULT:    -7.403      1.419      4.017
REMARK INTER + INTRA:          -7.507
REMARK INTER:                  -7.847
REMARK INTRA:                   0.341
REMARK UNBOUND:                 0.329
REMARK  Name = ZINC000000265517
REMARK  2 active torsions:
REMARK  status: ('A' for Active; 'I' for Inactive)
REMARK    1  A    between atoms: C_1  and  O_2
REMARK    2  A    between atoms: O_2  and  C_3
REMARK                            x       y       z     vdW  Elec       q    Type
REMARK                         _______ _______ _______ _____ _____    ______ ____
ROOT
ATOM      1  C   UNL     1      -2.555   2.739 -22.506  0.00  0.00    +0.142 A 
ATOM      2  C   UNL     1      -1.297   2.415 -22.469  0.00  0.00    +0.043 A 
ATOM      3  C   UNL     1      -0.798   1.862 -21.403  0.00  0.00    +0.013 A 
ATOM      4  C   UNL     1       0.460   1.538 -21.366  0.00  0.00    +0.001 A 
ATOM      5  C   UNL     1       1.220   1.768 -22.395  0.00  0.00    +0.002 A 
ATOM      6  C   UNL     1       0.723   2.321 -23.461  0.00  0.00    +0.028 A 
ATOM      7  C   UNL     1      -0.535   2.645 -23.498  0.00  0.00    +0.078 A 
ATOM      8  N   UNL     1      -1.033   3.198 -24.564  0.00  0.00    -0.212 NA
ATOM      9  C   UNL     1      -2.292   3.522 -24.601  0.00  0.00    +0.231 A 
ATOM     10  O   UNL     1      -3.022   4.074 -25.524  0.00  0.00    -0.445 OA
ATOM     11  C   UNL     1      -4.232   4.186 -25.066  0.00  0.00    +0.198 A 
ATOM     12  C   UNL     1      -4.252   3.703 -23.860  0.00  0.00    +0.055 A 
ATOM     13  C   UNL     1      -3.052   3.292 -23.572  0.00  0.00    +0.082 A 
ENDROOT
BRANCH   1  15
ATOM     14  C   UNL     1      -3.503   3.439 -20.587  0.00  0.00    +0.277 C 
ATOM     15  O   UNL     1      -3.315   2.509 -21.477  0.00  0.00    -0.494 OA
ENDBRANCH   1  15
TORSDOF 1
ENDMDL
MODEL 7
REMARK VINA RESULT:    -7.384      2.021      4.090
REMARK INTER + INTRA:          -7.487
REMARK INTER:                  -7.825
REMARK INTRA:                   0.338
REMARK UNBOUND:                 0.329
REMARK  Name = ZINC000000265517
REMARK  2 active torsions:
REMARK  status: ('A' for Active; 'I' for Inactive)
REMARK    1  A    between atoms: C_1  and  O_2
REMARK    2  A    between atoms: O_2  and  C_3
REMARK                            x       y       z     vdW  Elec       q    Type
REMARK                         _______ _______ _______ _____ _____    ______ ____
ROOT
ATOM      1  C   UNL     1      -2.069   3.595 -23.862  0.00  0.00    +0.142 A 
ATOM      2  C   UNL     1      -2.746   3.551 -22.754  0.00  0.00    +0.043 A 
ATOM      3  C   UNL     1      -2.130   3.625 -21.611  0.00  0.00    +0.013 A 
ATOM      4  C   UNL     1      -2.808   3.580 -20.503  0.00  0.00    +0.001 A 
ATOM      5  C   UNL     1      -4.102   3.461 -20.537  0.00  0.00    +0.002 A 
ATOM      6  C   UNL     1      -4.718   3.387 -21.679  0.00  0.00    +0.028 A 
ATOM      7  C   UNL     1      -4.040   3.432 -22.787  0.00  0.00    +0.078 A 
ATOM      8  N   UNL     1      -4.657   3.358 -23.929  0.00  0.00    -0.212 NA
ATOM      9  C   UNL     1      -3.979   3.402 -25.038  0.00  0.00    +0.231 A 
ATOM     10  O   UNL     1      -4.345   3.350 -26.284  0.00  0.00    -0.445 OA
ATOM     11  C   UNL     1      -3.278   3.436 -27.021  0.00  0.00    +0.198 A 
ATOM     12  C   UNL     1      -2.251   3.542 -26.229  0.00  0.00    +0.055 A 
ATOM     13  C   UNL     1      -2.685   3.521 -25.004  0.00  0.00    +0.082 A 
ENDROOT
BRANCH   1  15
ATOM     14  C   UNL     1      -0.023   2.654 -23.879  0.00  0.00    +0.277 C 
ATOM     15  O   UNL     1      -0.774   3.714 -23.828  0.00  0.00    -0.494 OA
ENDBRANCH   1  15
TORSDOF 1
ENDMDL
MODEL 8
REMARK VINA RESULT:    -7.327      1.475      3.232
REMARK INTER + INTRA:          -7.427
REMARK INTER:                  -7.760
REMARK INTRA:                   0.333
REMARK UNBOUND:                 0.329
REMARK  Name = ZINC000000265517
REMARK  2 active torsions:
REMARK  status: ('A' for Active; 'I' for Inactive)
REMARK    1  A    between atoms: C_1  and  O_2
REMARK    2  A    between atoms: O_2  and  C_3
REMARK                            x       y       z     vdW  Elec       q    Type
REMARK                         _______ _______ _______ _____ _____    ______ ____
ROOT
ATOM      1  C   UNL     1      -2.030   3.497 -23.252  0.00  0.00    +0.142 A 
ATOM      2  C   UNL     1      -2.693   3.494 -24.370  0.00  0.00    +0.043 A 
ATOM      3  C   UNL     1      -2.057   3.462 -25.504  0.00  0.00    +0.013 A 
ATOM      4  C   UNL     1      -2.719   3.460 -26.622  0.00  0.00    +0.001 A 
ATOM      5  C   UNL     1      -4.019   3.490 -26.607  0.00  0.00    +0.002 A 
ATOM      6  C   UNL     1      -4.656   3.522 -25.474  0.00  0.00    +0.028 A 
ATOM      7  C   UNL     1      -3.993   3.524 -24.356  0.00  0.00    +0.078 A 
ATOM      8  N   UNL     1      -4.630   3.556 -23.223  0.00  0.00    -0.212 NA
ATOM      9  C   UNL     1      -3.967   3.559 -22.105  0.00  0.00    +0.231 A 
ATOM     10  O   UNL     1      -4.354   3.587 -20.864  0.00  0.00    -0.445 OA
ATOM     11  C   UNL     1      -3.294   3.575 -20.112  0.00  0.00    +0.198 A 
ATOM     12  C   UNL     1      -2.251   3.539 -20.888  0.00  0.00    +0.055 A 
ATOM     13  C   UNL     1      -2.667   3.529 -22.120  0.00  0.00    +0.082 A 
ENDROOT
BRANCH   1  15
ATOM     14  C   UNL     1      -0.105   2.342 -23.084  0.00  0.00    +0.277 C 
ATOM     15  O   UNL     1      -0.731   3.467 -23.267  0.00  0.00    -0.494 OA
ENDBRANCH   1  15
TORSDOF 1
ENDMDL
MODEL 9
REMARK VINA RESULT:    -7.023      2.839      4.174
REMARK INTER + INTRA:          -7.105
REMARK INTER:                  -7.434
REMARK INTRA:                   0.329
REMARK UNBOUND:                 0.329
REMARK  Name = ZINC000000265517
REMARK  2 active torsions:
REMARK  status: ('A' for Active; 'I' for Inactive)
REMARK    1  A    between atoms: C_1  and  O_2
REMARK    2  A    between atoms: O_2  and  C_3
REMARK                            x       y       z     vdW  Elec       q    Type
REMARK                         _______ _______ _______ _____ _____    ______ ____
ROOT
ATOM      1  C   UNL     1       1.024   3.152 -23.391  0.00  0.00    +0.142 A 
ATOM      2  C   UNL     1      -0.098   3.129 -22.735  0.00  0.00    +0.043 A 
ATOM      3  C   UNL     1      -0.915   4.138 -22.809  0.00  0.00    +0.013 A 
ATOM      4  C   UNL     1      -2.037   4.115 -22.153  0.00  0.00    +0.001 A 
ATOM      5  C   UNL     1      -2.342   3.084 -21.423  0.00  0.00    +0.002 A 
ATOM      6  C   UNL     1      -1.525   2.075 -21.349  0.00  0.00    +0.028 A 
ATOM      7  C   UNL     1      -0.404   2.098 -22.005  0.00  0.00    +0.078 A 
ATOM      8  N   UNL     1       0.413   1.089 -21.931  0.00  0.00    -0.212 NA
ATOM      9  C   UNL     1       1.535   1.112 -22.587  0.00  0.00    +0.231 A 
ATOM     10  O   UNL     1       2.506   0.252 -22.681  0.00  0.00    -0.445 OA
ATOM     11  C   UNL     1       3.410   0.751 -23.469  0.00  0.00    +0.198 A 
ATOM     12  C   UNL     1       2.999   1.920 -23.863  0.00  0.00    +0.055 A 
ATOM     13  C   UNL     1       1.840   2.143 -23.317  0.00  0.00    +0.082 A 
ENDROOT
BRANCH   1  15
ATOM     14  C   UNL     1       1.125   4.153 -25.406  0.00  0.00    +0.277 C 
ATOM     15  O   UNL     1       1.328   4.183 -24.122  0.00  0.00    -0.494 OA
ENDBRANCH   1  15
TORSDOF 1
ENDMDL
