MODEL 1
REMARK VINA RESULT:    -9.658      0.000      0.000
REMARK INTER + INTRA:         -10.866
REMARK INTER:                 -10.786
REMARK INTRA:                  -0.080
REMARK UNBOUND:                -0.079
REMARK  Name = ZINC000003978794
REMARK  5 active torsions:
REMARK  status: ('A' for Active; 'I' for Inactive)
REMARK    1  A    between atoms: C_1  and  O_2
REMARK    2  A    between atoms: O_2  and  C_3
REMARK    3  A    between atoms: C_5  and  O_6
REMARK    4  A    between atoms: C_14  and  C_15
REMARK    5  A    between atoms: C_17  and  O_18
REMARK                            x       y       z     vdW  Elec       q    Type
REMARK                         _______ _______ _______ _____ _____    ______ ____
ROOT
ATOM      1  C   UNL     1       2.165   2.230 -22.996  0.00  0.00    +0.124 A 
ATOM      2  C   UNL     1       2.164   2.608 -24.240  0.00  0.00    +0.091 A 
ATOM      3  C   UNL     1       1.052   2.971 -24.807  0.00  0.00    +0.132 A 
ATOM      4  C   UNL     1      -0.059   2.956 -24.131  0.00  0.00    +0.075 A 
ATOM      5  C   UNL     1      -0.057   2.577 -22.888  0.00  0.00    +0.040 A 
ATOM      6  C   UNL     1      -1.167   2.561 -22.212  0.00  0.00    +0.195 C 
ATOM      7  C   UNL     1      -2.278   2.924 -22.779  0.00  0.00    +0.037 A 
ATOM      8  C   UNL     1      -3.389   2.908 -22.103  0.00  0.00    +0.016 A 
ATOM      9  C   UNL     1      -4.501   3.271 -22.671  0.00  0.00    -0.046 A 
ATOM     10  C   UNL     1      -4.502   3.650 -23.915  0.00  0.00    +0.049 A 
ATOM     11  C   UNL     1      -3.393   3.666 -24.591  0.00  0.00    +0.129 A 
ATOM     12  C   UNL     1      -5.611   3.255 -21.995  0.00  0.00    +0.044 C 
ATOM     13  C   UNL     1      -2.280   3.303 -24.023  0.00  0.00    +0.075 A 
ATOM     14  O   UNL     1      -1.165   2.182 -20.968  0.00  0.00    -0.287 OA
ATOM     15  C   UNL     1      -1.170   3.318 -24.699  0.00  0.00    +0.202 C 
ATOM     16  O   UNL     1      -1.172   3.697 -25.943  0.00  0.00    -0.286 OA
ATOM     17  C   UNL     1       1.055   2.214 -22.320  0.00  0.00    +0.058 A 
ENDROOT
BRANCH   1  19
ATOM     18  C   UNL     1       3.344   0.732 -21.798  0.00  0.00    +0.277 C 
ATOM     19  O   UNL     1       3.277   1.867 -22.428  0.00  0.00    -0.495 OA
ENDBRANCH   1  19
BRANCH  11  20
ATOM     20  O   UNL     1      -3.394   4.044 -25.834  0.00  0.00    -0.506 OA
ATOM     21  H   UNL     1      -3.185   4.930 -26.054  0.00  0.00    +0.292 HD
ENDBRANCH  11  20
BRANCH   3  22
ATOM     22  O   UNL     1       1.051   3.350 -26.051  0.00  0.00    -0.506 OA
ATOM     23  H   UNL     1       1.708   3.034 -26.638  0.00  0.00    +0.292 HD
ENDBRANCH   3  22
TORSDOF 3
ENDMDL
MODEL 2
REMARK VINA RESULT:    -9.400      1.395      5.616
REMARK INTER + INTRA:         -10.577
REMARK INTER:                 -10.495
REMARK INTRA:                  -0.083
REMARK UNBOUND:                -0.079
REMARK  Name = ZINC000003978794
REMARK  5 active torsions:
REMARK  status: ('A' for Active; 'I' for Inactive)
REMARK    1  A    between atoms: C_1  and  O_2
REMARK    2  A    between atoms: O_2  and  C_3
REMARK    3  A    between atoms: C_5  and  O_6
REMARK    4  A    between atoms: C_14  and  C_15
REMARK    5  A    between atoms: C_17  and  O_18
REMARK                            x       y       z     vdW  Elec       q    Type
REMARK                         _______ _______ _______ _____ _____    ______ ____
ROOT
ATOM      1  C   UNL     1      -2.230   2.914 -23.150  0.00  0.00    +0.124 A 
ATOM      2  C   UNL     1      -1.816   3.225 -24.342  0.00  0.00    +0.091 A 
ATOM      3  C   UNL     1      -0.575   3.022 -24.673  0.00  0.00    +0.132 A 
ATOM      4  C   UNL     1       0.252   2.506 -23.812  0.00  0.00    +0.075 A 
ATOM      5  C   UNL     1      -0.163   2.194 -22.620  0.00  0.00    +0.040 A 
ATOM      6  C   UNL     1       0.663   1.679 -21.758  0.00  0.00    +0.195 C 
ATOM      7  C   UNL     1       1.903   1.476 -22.089  0.00  0.00    +0.037 A 
ATOM      8  C   UNL     1       2.730   0.960 -21.228  0.00  0.00    +0.016 A 
ATOM      9  C   UNL     1       3.970   0.757 -21.559  0.00  0.00    -0.046 A 
ATOM     10  C   UNL     1       4.385   1.069 -22.751  0.00  0.00    +0.049 A 
ATOM     11  C   UNL     1       3.559   1.584 -23.612  0.00  0.00    +0.129 A 
ATOM     12  C   UNL     1       4.796   0.241 -20.698  0.00  0.00    +0.044 C 
ATOM     13  C   UNL     1       2.318   1.788 -23.281  0.00  0.00    +0.075 A 
ATOM     14  O   UNL     1       0.248   1.367 -20.566  0.00  0.00    -0.287 OA
ATOM     15  C   UNL     1       1.492   2.303 -24.142  0.00  0.00    +0.202 C 
ATOM     16  O   UNL     1       1.907   2.615 -25.334  0.00  0.00    -0.286 OA
ATOM     17  C   UNL     1      -1.403   2.398 -22.289  0.00  0.00    +0.058 A 
ENDROOT
BRANCH   1  19
ATOM     18  C   UNL     1      -3.882   2.813 -21.625  0.00  0.00    +0.277 C 
ATOM     19  O   UNL     1      -3.471   3.117 -22.819  0.00  0.00    -0.495 OA
ENDBRANCH   1  19
BRANCH  11  20
ATOM     20  O   UNL     1       3.974   1.896 -24.804  0.00  0.00    -0.506 OA
ATOM     21  H   UNL     1       4.746   1.495 -25.151  0.00  0.00    +0.292 HD
ENDBRANCH  11  20
BRANCH   3  22
ATOM     22  O   UNL     1      -0.161   3.334 -25.865  0.00  0.00    -0.506 OA
ATOM     23  H   UNL     1       0.407   2.753 -26.331  0.00  0.00    +0.292 HD
ENDBRANCH   3  22
TORSDOF 3
ENDMDL
MODEL 3
REMARK VINA RESULT:    -9.265      1.148      5.295
REMARK INTER + INTRA:         -10.427
REMARK INTER:                 -10.349
REMARK INTRA:                  -0.079
REMARK UNBOUND:                -0.079
REMARK  Name = ZINC000003978794
REMARK  5 active torsions:
REMARK  status: ('A' for Active; 'I' for Inactive)
REMARK    1  A    between atoms: C_1  and  O_2
REMARK    2  A    between atoms: O_2  and  C_3
REMARK    3  A    between atoms: C_5  and  O_6
REMARK    4  A    between atoms: C_14  and  C_15
REMARK    5  A    between atoms: C_17  and  O_18
REMARK                            x       y       z     vdW  Elec       q    Type
REMARK                         _______ _______ _______ _____ _____    ______ ____
ROOT
ATOM      1  C   UNL     1      -3.641   2.737 -22.045  0.00  0.00    +0.124 A 
ATOM      2  C   UNL     1      -3.786   3.328 -23.194  0.00  0.00    +0.091 A 
ATOM      3  C   UNL     1      -2.768   3.455 -23.993  0.00  0.00    +0.132 A 
ATOM      4  C   UNL     1      -1.605   2.992 -23.643  0.00  0.00    +0.075 A 
ATOM      5  C   UNL     1      -1.459   2.401 -22.494  0.00  0.00    +0.040 A 
ATOM      6  C   UNL     1      -0.297   1.938 -22.144  0.00  0.00    +0.195 C 
ATOM      7  C   UNL     1       0.721   2.066 -22.942  0.00  0.00    +0.037 A 
ATOM      8  C   UNL     1       1.884   1.602 -22.592  0.00  0.00    +0.016 A 
ATOM      9  C   UNL     1       2.902   1.730 -23.391  0.00  0.00    -0.046 A 
ATOM     10  C   UNL     1       2.757   2.321 -24.540  0.00  0.00    +0.049 A 
ATOM     11  C   UNL     1       1.594   2.784 -24.890  0.00  0.00    +0.129 A 
ATOM     12  C   UNL     1       4.065   1.267 -23.041  0.00  0.00    +0.044 C 
ATOM     13  C   UNL     1       0.576   2.656 -24.091  0.00  0.00    +0.075 A 
ATOM     14  O   UNL     1      -0.152   1.347 -20.995  0.00  0.00    -0.287 OA
ATOM     15  C   UNL     1      -0.587   3.119 -24.442  0.00  0.00    +0.202 C 
ATOM     16  O   UNL     1      -0.732   3.710 -25.590  0.00  0.00    -0.286 OA
ATOM     17  C   UNL     1      -2.477   2.274 -21.695  0.00  0.00    +0.058 A 
ENDROOT
BRANCH   1  19
ATOM     18  C   UNL     1      -5.855   2.891 -21.669  0.00  0.00    +0.277 C 
ATOM     19  O   UNL     1      -4.658   2.609 -21.247  0.00  0.00    -0.495 OA
ENDBRANCH   1  19
BRANCH  11  20
ATOM     20  O   UNL     1       1.449   3.374 -26.039  0.00  0.00    -0.506 OA
ATOM     21  H   UNL     1       2.023   3.165 -26.749  0.00  0.00    +0.292 HD
ENDBRANCH  11  20
BRANCH   3  22
ATOM     22  O   UNL     1      -2.913   4.046 -25.142  0.00  0.00    -0.506 OA
ATOM     23  H   UNL     1      -3.771   4.213 -25.478  0.00  0.00    +0.292 HD
ENDBRANCH   3  22
TORSDOF 3
ENDMDL
MODEL 4
REMARK VINA RESULT:    -9.123      1.174      3.039
REMARK INTER + INTRA:         -10.269
REMARK INTER:                 -10.190
REMARK INTRA:                  -0.079
REMARK UNBOUND:                -0.079
REMARK  Name = ZINC000003978794
REMARK  5 active torsions:
REMARK  status: ('A' for Active; 'I' for Inactive)
REMARK    1  A    between atoms: C_1  and  O_2
REMARK    2  A    between atoms: O_2  and  C_3
REMARK    3  A    between atoms: C_5  and  O_6
REMARK    4  A    between atoms: C_14  and  C_15
REMARK    5  A    between atoms: C_17  and  O_18
REMARK                            x       y       z     vdW  Elec       q    Type
REMARK                         _______ _______ _______ _____ _____    ______ ____
ROOT
ATOM      1  C   UNL     1       2.665   2.198 -23.608  0.00  0.00    +0.124 A 
ATOM      2  C   UNL     1       2.419   1.702 -22.432  0.00  0.00    +0.091 A 
ATOM      3  C   UNL     1       1.212   1.737 -21.952  0.00  0.00    +0.132 A 
ATOM      4  C   UNL     1       0.250   2.268 -22.648  0.00  0.00    +0.075 A 
ATOM      5  C   UNL     1       0.497   2.765 -23.824  0.00  0.00    +0.040 A 
ATOM      6  C   UNL     1      -0.464   3.296 -24.519  0.00  0.00    +0.195 C 
ATOM      7  C   UNL     1      -1.671   3.331 -24.039  0.00  0.00    +0.037 A 
ATOM      8  C   UNL     1      -2.633   3.863 -24.735  0.00  0.00    +0.016 A 
ATOM      9  C   UNL     1      -3.840   3.898 -24.254  0.00  0.00    -0.046 A 
ATOM     10  C   UNL     1      -4.087   3.401 -23.078  0.00  0.00    +0.049 A 
ATOM     11  C   UNL     1      -3.126   2.870 -22.383  0.00  0.00    +0.129 A 
ATOM     12  C   UNL     1      -4.801   4.429 -24.950  0.00  0.00    +0.044 C 
ATOM     13  C   UNL     1      -1.918   2.835 -22.863  0.00  0.00    +0.075 A 
ATOM     14  O   UNL     1      -0.218   3.792 -25.695  0.00  0.00    -0.287 OA
ATOM     15  C   UNL     1      -0.957   2.303 -22.167  0.00  0.00    +0.202 C 
ATOM     16  O   UNL     1      -1.204   1.807 -20.992  0.00  0.00    -0.286 OA
ATOM     17  C   UNL     1       1.704   2.730 -24.304  0.00  0.00    +0.058 A 
ENDROOT
BRANCH   1  19
ATOM     18  C   UNL     1       4.768   2.999 -23.656  0.00  0.00    +0.277 C 
ATOM     19  O   UNL     1       3.873   2.163 -24.089  0.00  0.00    -0.495 OA
ENDBRANCH   1  19
BRANCH  11  20
ATOM     20  O   UNL     1      -3.373   2.374 -21.207  0.00  0.00    -0.506 OA
ATOM     21  H   UNL     1      -3.785   2.902 -20.552  0.00  0.00    +0.292 HD
ENDBRANCH  11  20
BRANCH   3  22
ATOM     22  O   UNL     1       0.965   1.240 -20.776  0.00  0.00    -0.506 OA
ATOM     23  H   UNL     1       1.294   0.394 -20.546  0.00  0.00    +0.292 HD
ENDBRANCH   3  22
TORSDOF 3
ENDMDL
MODEL 5
REMARK VINA RESULT:    -8.934      1.158      2.032
REMARK INTER + INTRA:         -10.057
REMARK INTER:                  -9.979
REMARK INTRA:                  -0.079
REMARK UNBOUND:                -0.079
REMARK  Name = ZINC000003978794
REMARK  5 active torsions:
REMARK  status: ('A' for Active; 'I' for Inactive)
REMARK    1  A    between atoms: C_1  and  O_2
REMARK    2  A    between atoms: O_2  and  C_3
REMARK    3  A    between atoms: C_5  and  O_6
REMARK    4  A    between atoms: C_14  and  C_15
REMARK    5  A    between atoms: C_17  and  O_18
REMARK                            x       y       z     vdW  Elec       q    Type
REMARK                         _______ _______ _______ _____ _____    ______ ____
ROOT
ATOM      1  C   UNL     1       2.915   0.936 -21.555  0.00  0.00    +0.124 A 
ATOM      2  C   UNL     1       3.449   1.211 -22.708  0.00  0.00    +0.091 A 
ATOM      3  C   UNL     1       2.735   1.773 -23.637  0.00  0.00    +0.132 A 
ATOM      4  C   UNL     1       1.486   2.060 -23.414  0.00  0.00    +0.075 A 
ATOM      5  C   UNL     1       0.953   1.785 -22.262  0.00  0.00    +0.040 A 
ATOM      6  C   UNL     1      -0.295   2.071 -22.038  0.00  0.00    +0.195 C 
ATOM      7  C   UNL     1      -1.009   2.633 -22.967  0.00  0.00    +0.037 A 
ATOM      8  C   UNL     1      -2.258   2.920 -22.744  0.00  0.00    +0.016 A 
ATOM      9  C   UNL     1      -2.972   3.482 -23.674  0.00  0.00    -0.046 A 
ATOM     10  C   UNL     1      -2.438   3.758 -24.827  0.00  0.00    +0.049 A 
ATOM     11  C   UNL     1      -1.190   3.471 -25.050  0.00  0.00    +0.129 A 
ATOM     12  C   UNL     1      -4.220   3.768 -23.450  0.00  0.00    +0.044 C 
ATOM     13  C   UNL     1      -0.475   2.909 -24.120  0.00  0.00    +0.075 A 
ATOM     14  O   UNL     1      -0.829   1.795 -20.885  0.00  0.00    -0.287 OA
ATOM     15  C   UNL     1       0.772   2.622 -24.344  0.00  0.00    +0.202 C 
ATOM     16  O   UNL     1       1.306   2.898 -25.497  0.00  0.00    -0.286 OA
ATOM     17  C   UNL     1       1.667   1.223 -21.332  0.00  0.00    +0.058 A 
ENDROOT
BRANCH   1  19
ATOM     18  C   UNL     1       4.925   0.355 -20.724  0.00  0.00    +0.277 C 
ATOM     19  O   UNL     1       3.629   0.374 -20.626  0.00  0.00    -0.495 OA
ENDBRANCH   1  19
BRANCH  11  20
ATOM     20  O   UNL     1      -0.656   3.747 -26.203  0.00  0.00    -0.506 OA
ATOM     21  H   UNL     1      -0.788   3.170 -26.930  0.00  0.00    +0.292 HD
ENDBRANCH  11  20
BRANCH   3  22
ATOM     22  O   UNL     1       3.269   2.049 -24.790  0.00  0.00    -0.506 OA
ATOM     23  H   UNL     1       3.472   2.936 -25.013  0.00  0.00    +0.292 HD
ENDBRANCH   3  22
TORSDOF 3
ENDMDL
MODEL 6
REMARK VINA RESULT:    -8.815      1.316      6.123
REMARK INTER + INTRA:          -9.924
REMARK INTER:                  -9.846
REMARK INTRA:                  -0.079
REMARK UNBOUND:                -0.079
REMARK  Name = ZINC000003978794
REMARK  5 active torsions:
REMARK  status: ('A' for Active; 'I' for Inactive)
REMARK    1  A    between atoms: C_1  and  O_2
REMARK    2  A    between atoms: O_2  and  C_3
REMARK    3  A    between atoms: C_5  and  O_6
REMARK    4  A    between atoms: C_14  and  C_15
REMARK    5  A    between atoms: C_17  and  O_18
REMARK                            x       y       z     vdW  Elec       q    Type
REMARK                         _______ _______ _______ _____ _____    ______ ____
ROOT
ATOM      1  C   UNL     1      -2.878   3.934 -24.087  0.00  0.00    +0.124 A 
ATOM      2  C   UNL     1      -3.154   3.192 -23.056  0.00  0.00    +0.091 A 
ATOM      3  C   UNL     1      -2.194   2.626 -22.386  0.00  0.00    +0.132 A 
ATOM      4  C   UNL     1      -0.957   2.802 -22.748  0.00  0.00    +0.075 A 
ATOM      5  C   UNL     1      -0.681   3.544 -23.780  0.00  0.00    +0.040 A 
ATOM      6  C   UNL     1       0.554   3.719 -24.142  0.00  0.00    +0.195 C 
ATOM      7  C   UNL     1       1.514   3.154 -23.472  0.00  0.00    +0.037 A 
ATOM      8  C   UNL     1       2.751   3.329 -23.834  0.00  0.00    +0.016 A 
ATOM      9  C   UNL     1       3.711   2.763 -23.165  0.00  0.00    -0.046 A 
ATOM     10  C   UNL     1       3.435   2.022 -22.134  0.00  0.00    +0.049 A 
ATOM     11  C   UNL     1       2.199   1.846 -21.772  0.00  0.00    +0.129 A 
ATOM     12  C   UNL     1       4.947   2.939 -23.527  0.00  0.00    +0.044 C 
ATOM     13  C   UNL     1       1.238   2.412 -22.441  0.00  0.00    +0.075 A 
ATOM     14  O   UNL     1       0.830   4.461 -25.173  0.00  0.00    -0.287 OA
ATOM     15  C   UNL     1       0.003   2.236 -22.079  0.00  0.00    +0.202 C 
ATOM     16  O   UNL     1      -0.273   1.495 -21.047  0.00  0.00    -0.286 OA
ATOM     17  C   UNL     1      -1.641   4.109 -24.449  0.00  0.00    +0.058 A 
ENDROOT
BRANCH   1  19
ATOM     18  C   UNL     1      -5.070   4.137 -24.557  0.00  0.00    +0.277 C 
ATOM     19  O   UNL     1      -3.838   4.500 -24.756  0.00  0.00    -0.495 OA
ENDBRANCH   1  19
BRANCH  11  20
ATOM     20  O   UNL     1       1.923   1.104 -20.740  0.00  0.00    -0.506 OA
ATOM     21  H   UNL     1       2.120   1.411 -19.877  0.00  0.00    +0.292 HD
ENDBRANCH  11  20
BRANCH   3  22
ATOM     22  O   UNL     1      -2.470   1.885 -21.355  0.00  0.00    -0.506 OA
ATOM     23  H   UNL     1      -2.968   1.100 -21.462  0.00  0.00    +0.292 HD
ENDBRANCH   3  22
TORSDOF 3
ENDMDL
MODEL 7
REMARK VINA RESULT:    -8.733      2.068      6.410
REMARK INTER + INTRA:          -9.833
REMARK INTER:                  -9.754
REMARK INTRA:                  -0.079
REMARK UNBOUND:                -0.079
REMARK  Name = ZINC000003978794
REMARK  5 active torsions:
REMARK  status: ('A' for Active; 'I' for Inactive)
REMARK    1  A    between atoms: C_1  and  O_2
REMARK    2  A    between atoms: O_2  and  C_3
REMARK    3  A    between atoms: C_5  and  O_6
REMARK    4  A    between atoms: C_14  and  C_15
REMARK    5  A    between atoms: C_17  and  O_18
REMARK                            x       y       z     vdW  Elec       q    Type
REMARK                         _______ _______ _______ _____ _____    ______ ____
ROOT
ATOM      1  C   UNL     1      -1.696   3.772 -23.440  0.00  0.00    +0.124 A 
ATOM      2  C   UNL     1      -1.706   2.591 -22.898  0.00  0.00    +0.091 A 
ATOM      3  C   UNL     1      -0.590   2.034 -22.533  0.00  0.00    +0.132 A 
ATOM      4  C   UNL     1       0.537   2.659 -22.710  0.00  0.00    +0.075 A 
ATOM      5  C   UNL     1       0.547   3.840 -23.252  0.00  0.00    +0.040 A 
ATOM      6  C   UNL     1       1.673   4.465 -23.429  0.00  0.00    +0.195 C 
ATOM      7  C   UNL     1       2.789   3.908 -23.064  0.00  0.00    +0.037 A 
ATOM      8  C   UNL     1       3.916   4.532 -23.241  0.00  0.00    +0.016 A 
ATOM      9  C   UNL     1       5.032   3.975 -22.876  0.00  0.00    -0.046 A 
ATOM     10  C   UNL     1       5.023   2.794 -22.334  0.00  0.00    +0.049 A 
ATOM     11  C   UNL     1       3.897   2.169 -22.157  0.00  0.00    +0.129 A 
ATOM     12  C   UNL     1       6.158   4.600 -23.054  0.00  0.00    +0.044 C 
ATOM     13  C   UNL     1       2.779   2.726 -22.522  0.00  0.00    +0.075 A 
ATOM     14  O   UNL     1       1.682   5.646 -23.972  0.00  0.00    -0.287 OA
ATOM     15  C   UNL     1       1.654   2.102 -22.345  0.00  0.00    +0.202 C 
ATOM     16  O   UNL     1       1.644   0.920 -21.802  0.00  0.00    -0.286 OA
ATOM     17  C   UNL     1      -0.569   4.397 -23.617  0.00  0.00    +0.058 A 
ENDROOT
BRANCH   1  19
ATOM     18  C   UNL     1      -3.888   3.610 -23.926  0.00  0.00    +0.277 C 
ATOM     19  O   UNL     1      -2.812   4.329 -23.805  0.00  0.00    -0.495 OA
ENDBRANCH   1  19
BRANCH  11  20
ATOM     20  O   UNL     1       3.887   0.988 -21.614  0.00  0.00    -0.506 OA
ATOM     21  H   UNL     1       4.345   0.838 -20.811  0.00  0.00    +0.292 HD
ENDBRANCH  11  20
BRANCH   3  22
ATOM     22  O   UNL     1      -0.599   0.853 -21.990  0.00  0.00    -0.506 OA
ATOM     23  H   UNL     1      -1.194   0.199 -22.300  0.00  0.00    +0.292 HD
ENDBRANCH   3  22
TORSDOF 3
ENDMDL
MODEL 8
REMARK VINA RESULT:    -8.627      1.913      5.773
REMARK INTER + INTRA:          -9.715
REMARK INTER:                  -9.636
REMARK INTRA:                  -0.079
REMARK UNBOUND:                -0.079
REMARK  Name = ZINC000003978794
REMARK  5 active torsions:
REMARK  status: ('A' for Active; 'I' for Inactive)
REMARK    1  A    between atoms: C_1  and  O_2
REMARK    2  A    between atoms: O_2  and  C_3
REMARK    3  A    between atoms: C_5  and  O_6
REMARK    4  A    between atoms: C_14  and  C_15
REMARK    5  A    between atoms: C_17  and  O_18
REMARK                            x       y       z     vdW  Elec       q    Type
REMARK                         _______ _______ _______ _____ _____    ______ ____
ROOT
ATOM      1  C   UNL     1      -2.530   3.194 -22.666  0.00  0.00    +0.124 A 
ATOM      2  C   UNL     1      -2.234   4.394 -23.069  0.00  0.00    +0.091 A 
ATOM      3  C   UNL     1      -0.991   4.741 -23.221  0.00  0.00    +0.132 A 
ATOM      4  C   UNL     1      -0.042   3.888 -22.969  0.00  0.00    +0.075 A 
ATOM      5  C   UNL     1      -0.338   2.688 -22.566  0.00  0.00    +0.040 A 
ATOM      6  C   UNL     1       0.610   1.835 -22.315  0.00  0.00    +0.195 C 
ATOM      7  C   UNL     1       1.853   2.181 -22.466  0.00  0.00    +0.037 A 
ATOM      8  C   UNL     1       2.802   1.328 -22.215  0.00  0.00    +0.016 A 
ATOM      9  C   UNL     1       4.045   1.675 -22.366  0.00  0.00    -0.046 A 
ATOM     10  C   UNL     1       4.341   2.875 -22.770  0.00  0.00    +0.049 A 
ATOM     11  C   UNL     1       3.393   3.728 -23.021  0.00  0.00    +0.129 A 
ATOM     12  C   UNL     1       4.993   0.822 -22.115  0.00  0.00    +0.044 C 
ATOM     13  C   UNL     1       2.149   3.381 -22.869  0.00  0.00    +0.075 A 
ATOM     14  O   UNL     1       0.314   0.634 -21.912  0.00  0.00    -0.287 OA
ATOM     15  C   UNL     1       1.201   4.235 -23.121  0.00  0.00    +0.202 C 
ATOM     16  O   UNL     1       1.497   5.435 -23.524  0.00  0.00    -0.286 OA
ATOM     17  C   UNL     1      -1.581   2.341 -22.414  0.00  0.00    +0.058 A 
ENDROOT
BRANCH   1  19
ATOM     18  C   UNL     1      -4.711   3.508 -23.124  0.00  0.00    +0.277 C 
ATOM     19  O   UNL     1      -3.773   2.847 -22.514  0.00  0.00    -0.495 OA
ENDBRANCH   1  19
BRANCH  11  20
ATOM     20  O   UNL     1       3.689   4.928 -23.424  0.00  0.00    -0.506 OA
ATOM     21  H   UNL     1       3.214   5.664 -23.092  0.00  0.00    +0.292 HD
ENDBRANCH  11  20
BRANCH   3  22
ATOM     22  O   UNL     1      -0.695   5.941 -23.624  0.00  0.00    -0.506 OA
ATOM     23  H   UNL     1      -0.271   6.540 -23.042  0.00  0.00    +0.292 HD
ENDBRANCH   3  22
TORSDOF 3
ENDMDL
MODEL 9
REMARK VINA RESULT:    -8.560      2.309      4.174
REMARK INTER + INTRA:          -9.639
REMARK INTER:                  -9.560
REMARK INTRA:                  -0.080
REMARK UNBOUND:                -0.079
REMARK  Name = ZINC000003978794
REMARK  5 active torsions:
REMARK  status: ('A' for Active; 'I' for Inactive)
REMARK    1  A    between atoms: C_1  and  O_2
REMARK    2  A    between atoms: O_2  and  C_3
REMARK    3  A    between atoms: C_5  and  O_6
REMARK    4  A    between atoms: C_14  and  C_15
REMARK    5  A    between atoms: C_17  and  O_18
REMARK                            x       y       z     vdW  Elec       q    Type
REMARK                         _______ _______ _______ _____ _____    ______ ____
ROOT
ATOM      1  C   UNL     1       5.132   3.865 -22.796  0.00  0.00    +0.124 A 
ATOM      2  C   UNL     1       5.095   2.672 -22.282  0.00  0.00    +0.091 A 
ATOM      3  C   UNL     1       3.957   2.060 -22.140  0.00  0.00    +0.132 A 
ATOM      4  C   UNL     1       2.855   2.641 -22.514  0.00  0.00    +0.075 A 
ATOM      5  C   UNL     1       2.892   3.834 -23.028  0.00  0.00    +0.040 A 
ATOM      6  C   UNL     1       1.791   4.415 -23.402  0.00  0.00    +0.195 C 
ATOM      7  C   UNL     1       0.653   3.802 -23.261  0.00  0.00    +0.037 A 
ATOM      8  C   UNL     1      -0.449   4.383 -23.634  0.00  0.00    +0.016 A 
ATOM      9  C   UNL     1      -1.586   3.771 -23.493  0.00  0.00    -0.046 A 
ATOM     10  C   UNL     1      -1.623   2.578 -22.978  0.00  0.00    +0.049 A 
ATOM     11  C   UNL     1      -0.522   1.997 -22.605  0.00  0.00    +0.129 A 
ATOM     12  C   UNL     1      -2.688   4.352 -23.866  0.00  0.00    +0.044 C 
ATOM     13  C   UNL     1       0.617   2.609 -22.746  0.00  0.00    +0.075 A 
ATOM     14  O   UNL     1       1.828   5.608 -23.917  0.00  0.00    -0.287 OA
ATOM     15  C   UNL     1       1.718   2.028 -22.372  0.00  0.00    +0.202 C 
ATOM     16  O   UNL     1       1.681   0.835 -21.858  0.00  0.00    -0.286 OA
ATOM     17  C   UNL     1       4.030   4.446 -23.170  0.00  0.00    +0.058 A 
ENDROOT
BRANCH   1  19
ATOM     18  C   UNL     1       6.443   5.655 -22.414  0.00  0.00    +0.277 C 
ATOM     19  O   UNL     1       6.270   4.478 -22.938  0.00  0.00    -0.495 OA
ENDBRANCH   1  19
BRANCH  11  20
ATOM     20  O   UNL     1      -0.559   0.804 -22.090  0.00  0.00    -0.506 OA
ATOM     21  H   UNL     1       0.239   0.362 -21.875  0.00  0.00    +0.292 HD
ENDBRANCH  11  20
BRANCH   3  22
ATOM     22  O   UNL     1       3.921   0.867 -21.625  0.00  0.00    -0.506 OA
ATOM     23  H   UNL     1       3.203   0.296 -21.816  0.00  0.00    +0.292 HD
ENDBRANCH   3  22
TORSDOF 3
ENDMDL
