MODEL 1
REMARK VINA RESULT:   -11.686      0.000      0.000
REMARK INTER + INTRA:         -12.711
REMARK INTER:                 -12.711
REMARK INTRA:                   0.000
REMARK UNBOUND:                 0.000
REMARK  Name = C[C@@]12CCC[C@H]1[C@@H]1CC(=O)[C@@]3(O)C[C@@H](O)CC[C@]3(C)[C@H]1CC2 ZINC000118913924
REMARK  4 active torsions:
REMARK  status: ('A' for Active; 'I' for Inactive)
REMARK    1  A    between atoms: C_1  and  C_2
REMARK    2  A    between atoms: C_11  and  O_12
REMARK    3  A    between atoms: C_14  and  O_15
REMARK    4  A    between atoms: C_18  and  C_19
REMARK                            x       y       z     vdW  Elec       q    Type
REMARK                         _______ _______ _______ _____ _____    ______ ____
ROOT
ATOM      1  C   UNL     1      -5.140   4.123 -24.151  0.00  0.00    +0.011 C 
ATOM      2  C   UNL     1      -4.340   3.533 -23.314  0.00  0.00    -0.029 C 
ATOM      3  C   UNL     1      -5.574   3.594 -22.912  0.00  0.00    +0.007 C 
ATOM      4  C   UNL     1      -5.644   3.023 -21.746  0.00  0.00    +0.001 C 
ATOM      5  C   UNL     1      -4.454   2.610 -21.428  0.00  0.00    +0.004 C 
ATOM      6  C   UNL     1      -3.756   3.952 -24.397  0.00  0.00    +0.007 C 
ATOM      7  C   UNL     1      -2.481   3.764 -24.564  0.00  0.00    +0.005 C 
ATOM      8  C   UNL     1      -1.789   3.156 -23.647  0.00  0.00    +0.002 C 
ATOM      9  C   UNL     1      -0.513   2.967 -23.814  0.00  0.00    +0.007 C 
ATOM     10  C   UNL     1      -1.205   3.575 -24.731  0.00  0.00    +0.015 C 
ATOM     11  C   UNL     1       0.070   3.387 -24.897  0.00  0.00    +0.012 C 
ATOM     12  C   UNL     1       1.345   3.198 -25.063  0.00  0.00    +0.032 C 
ATOM     13  C   UNL     1       2.038   2.590 -24.146  0.00  0.00    +0.118 C 
ATOM     14  C   UNL     1       1.455   2.171 -23.063  0.00  0.00    +0.074 C 
ATOM     15  C   UNL     1       0.179   2.359 -22.896  0.00  0.00    +0.131 C 
ATOM     16  C   UNL     1      -0.404   1.940 -21.813  0.00  0.00    +0.165 C 
ATOM     17  O   UNL     1       0.288   1.331 -20.896  0.00  0.00    -0.294 OA
ATOM     18  C   UNL     1      -1.680   2.128 -21.647  0.00  0.00    +0.081 C 
ATOM     19  C   UNL     1      -2.372   2.736 -22.564  0.00  0.00    +0.004 C 
ATOM     20  C   UNL     1      -3.648   2.925 -22.397  0.00  0.00    -0.001 C 
ENDROOT
BRANCH  13  21
ATOM     21  O   UNL     1       3.313   2.402 -24.312  0.00  0.00    -0.392 OA
ATOM     22  H   UNL     1       3.489   2.177 -25.240  0.00  0.00    +0.210 HD
ENDBRANCH  13  21
BRANCH  15  23
ATOM     23  O   UNL     1       0.871   1.751 -21.979  0.00  0.00    -0.380 OA
ATOM     24  H   UNL     1       1.547   1.197 -22.399  0.00  0.00    +0.211 HD
ENDBRANCH  15  23
TORSDOF 2
ENDMDL
MODEL 2
REMARK VINA RESULT:   -11.374      1.182      2.750
REMARK INTER + INTRA:         -12.372
REMARK INTER:                 -12.372
REMARK INTRA:                   0.000
REMARK UNBOUND:                 0.000
REMARK  Name = C[C@@]12CCC[C@H]1[C@@H]1CC(=O)[C@@]3(O)C[C@@H](O)CC[C@]3(C)[C@H]1CC2 ZINC000118913924
REMARK  4 active torsions:
REMARK  status: ('A' for Active; 'I' for Inactive)
REMARK    1  A    between atoms: C_1  and  C_2
REMARK    2  A    between atoms: C_11  and  O_12
REMARK    3  A    between atoms: C_14  and  O_15
REMARK    4  A    between atoms: C_18  and  C_19
REMARK                            x       y       z     vdW  Elec       q    Type
REMARK                         _______ _______ _______ _____ _____    ______ ____
ROOT
ATOM      1  C   UNL     1      -5.059   3.161 -21.934  0.00  0.00    +0.011 C 
ATOM      2  C   UNL     1      -4.117   3.318 -22.815  0.00  0.00    -0.029 C 
ATOM      3  C   UNL     1      -5.282   3.740 -23.206  0.00  0.00    +0.007 C 
ATOM      4  C   UNL     1      -5.155   4.212 -24.410  0.00  0.00    +0.001 C 
ATOM      5  C   UNL     1      -3.911   4.082 -24.764  0.00  0.00    +0.004 C 
ATOM      6  C   UNL     1      -3.717   2.768 -21.708  0.00  0.00    +0.007 C 
ATOM      7  C   UNL     1      -2.471   2.429 -21.562  0.00  0.00    +0.005 C 
ATOM      8  C   UNL     1      -1.623   2.641 -22.525  0.00  0.00    +0.002 C 
ATOM      9  C   UNL     1      -0.376   2.302 -22.379  0.00  0.00    +0.007 C 
ATOM     10  C   UNL     1      -1.224   2.090 -21.416  0.00  0.00    +0.015 C 
ATOM     11  C   UNL     1       0.022   1.752 -21.270  0.00  0.00    +0.012 C 
ATOM     12  C   UNL     1       1.269   1.414 -21.125  0.00  0.00    +0.032 C 
ATOM     13  C   UNL     1       2.117   1.625 -22.088  0.00  0.00    +0.118 C 
ATOM     14  C   UNL     1       1.718   2.174 -23.196  0.00  0.00    +0.074 C 
ATOM     15  C   UNL     1       0.471   2.513 -23.342  0.00  0.00    +0.131 C 
ATOM     16  C   UNL     1       0.072   3.063 -24.450  0.00  0.00    +0.165 C 
ATOM     17  O   UNL     1       0.919   3.274 -25.413  0.00  0.00    -0.294 OA
ATOM     18  C   UNL     1      -1.175   3.402 -24.595  0.00  0.00    +0.081 C 
ATOM     19  C   UNL     1      -2.023   3.190 -23.632  0.00  0.00    +0.004 C 
ATOM     20  C   UNL     1      -3.270   3.529 -23.778  0.00  0.00    -0.001 C 
ENDROOT
BRANCH  13  21
ATOM     21  O   UNL     1       3.363   1.286 -21.942  0.00  0.00    -0.392 OA
ATOM     22  H   UNL     1       3.858   2.029 -21.560  0.00  0.00    +0.210 HD
ENDBRANCH  13  21
BRANCH  15  23
ATOM     23  O   UNL     1       1.318   2.725 -24.305  0.00  0.00    -0.380 OA
ATOM     24  H   UNL     1       1.893   3.470 -24.072  0.00  0.00    +0.211 HD
ENDBRANCH  15  23
TORSDOF 2
ENDMDL
MODEL 3
REMARK VINA RESULT:   -11.126      2.660      5.895
REMARK INTER + INTRA:         -12.101
REMARK INTER:                 -12.101
REMARK INTRA:                   0.000
REMARK UNBOUND:                 0.000
REMARK  Name = C[C@@]12CCC[C@H]1[C@@H]1CC(=O)[C@@]3(O)C[C@@H](O)CC[C@]3(C)[C@H]1CC2 ZINC000118913924
REMARK  4 active torsions:
REMARK  status: ('A' for Active; 'I' for Inactive)
REMARK    1  A    between atoms: C_1  and  C_2
REMARK    2  A    between atoms: C_11  and  O_12
REMARK    3  A    between atoms: C_14  and  O_15
REMARK    4  A    between atoms: C_18  and  C_19
REMARK                            x       y       z     vdW  Elec       q    Type
REMARK                         _______ _______ _______ _____ _____    ______ ____
ROOT
ATOM      1  C   UNL     1       1.668   2.165 -22.688  0.00  0.00    +0.011 C 
ATOM      2  C   UNL     1       0.774   2.729 -23.444  0.00  0.00    -0.029 C 
ATOM      3  C   UNL     1       1.977   2.760 -23.935  0.00  0.00    +0.007 C 
ATOM      4  C   UNL     1       1.926   3.370 -25.082  0.00  0.00    +0.001 C 
ATOM      5  C   UNL     1       0.693   3.715 -25.300  0.00  0.00    +0.004 C 
ATOM      6  C   UNL     1       0.298   2.239 -22.338  0.00  0.00    +0.007 C 
ATOM      7  C   UNL     1      -0.971   2.339 -22.075  0.00  0.00    +0.005 C 
ATOM      8  C   UNL     1      -1.765   2.929 -22.919  0.00  0.00    +0.002 C 
ATOM      9  C   UNL     1      -3.034   3.028 -22.656  0.00  0.00    +0.007 C 
ATOM     10  C   UNL     1      -2.241   2.438 -21.812  0.00  0.00    +0.015 C 
ATOM     11  C   UNL     1      -3.510   2.538 -21.550  0.00  0.00    +0.012 C 
ATOM     12  C   UNL     1      -4.779   2.639 -21.288  0.00  0.00    +0.032 C 
ATOM     13  C   UNL     1      -5.573   3.229 -22.131  0.00  0.00    +0.118 C 
ATOM     14  C   UNL     1      -5.097   3.718 -23.237  0.00  0.00    +0.074 C 
ATOM     15  C   UNL     1      -3.828   3.619 -23.500  0.00  0.00    +0.131 C 
ATOM     16  C   UNL     1      -3.353   4.109 -24.606  0.00  0.00    +0.165 C 
ATOM     17  O   UNL     1      -4.146   4.699 -25.450  0.00  0.00    -0.294 OA
ATOM     18  C   UNL     1      -2.083   4.009 -24.869  0.00  0.00    +0.081 C 
ATOM     19  C   UNL     1      -1.289   3.418 -24.025  0.00  0.00    +0.004 C 
ATOM     20  C   UNL     1      -0.020   3.319 -24.288  0.00  0.00    -0.001 C 
ENDROOT
BRANCH  13  21
ATOM     21  O   UNL     1      -6.842   3.328 -21.869  0.00  0.00    -0.392 OA
ATOM     22  H   UNL     1      -7.277   2.480 -22.047  0.00  0.00    +0.210 HD
ENDBRANCH  13  21
BRANCH  15  23
ATOM     23  O   UNL     1      -4.621   4.209 -24.344  0.00  0.00    -0.380 OA
ATOM     24  H   UNL     1      -5.536   3.936 -24.172  0.00  0.00    +0.211 HD
ENDBRANCH  15  23
TORSDOF 2
ENDMDL
MODEL 4
REMARK VINA RESULT:   -10.230      2.229      5.192
REMARK INTER + INTRA:         -11.127
REMARK INTER:                 -11.127
REMARK INTRA:                   0.000
REMARK UNBOUND:                 0.000
REMARK  Name = C[C@@]12CCC[C@H]1[C@@H]1CC(=O)[C@@]3(O)C[C@@H](O)CC[C@]3(C)[C@H]1CC2 ZINC000118913924
REMARK  4 active torsions:
REMARK  status: ('A' for Active; 'I' for Inactive)
REMARK    1  A    between atoms: C_1  and  C_2
REMARK    2  A    between atoms: C_11  and  O_12
REMARK    3  A    between atoms: C_14  and  O_15
REMARK    4  A    between atoms: C_18  and  C_19
REMARK                            x       y       z     vdW  Elec       q    Type
REMARK                         _______ _______ _______ _____ _____    ______ ____
ROOT
ATOM      1  C   UNL     1       2.484   2.639 -24.252  0.00  0.00    +0.011 C 
ATOM      2  C   UNL     1       1.520   2.405 -23.412  0.00  0.00    -0.029 C 
ATOM      3  C   UNL     1       2.678   1.960 -23.025  0.00  0.00    +0.007 C 
ATOM      4  C   UNL     1       2.523   1.391 -21.867  0.00  0.00    +0.001 C 
ATOM      5  C   UNL     1       1.270   1.484 -21.538  0.00  0.00    +0.004 C 
ATOM      6  C   UNL     1       1.146   3.039 -24.483  0.00  0.00    +0.007 C 
ATOM      7  C   UNL     1      -0.100   3.380 -24.635  0.00  0.00    +0.005 C 
ATOM      8  C   UNL     1      -0.971   3.085 -23.716  0.00  0.00    +0.002 C 
ATOM      9  C   UNL     1      -2.216   3.426 -23.868  0.00  0.00    +0.007 C 
ATOM     10  C   UNL     1      -1.346   3.720 -24.787  0.00  0.00    +0.015 C 
ATOM     11  C   UNL     1      -2.591   4.060 -24.939  0.00  0.00    +0.012 C 
ATOM     12  C   UNL     1      -3.836   4.400 -25.091  0.00  0.00    +0.032 C 
ATOM     13  C   UNL     1      -4.708   4.106 -24.172  0.00  0.00    +0.118 C 
ATOM     14  C   UNL     1      -4.333   3.471 -23.102  0.00  0.00    +0.074 C 
ATOM     15  C   UNL     1      -3.087   3.131 -22.949  0.00  0.00    +0.131 C 
ATOM     16  C   UNL     1      -2.713   2.496 -21.878  0.00  0.00    +0.165 C 
ATOM     17  O   UNL     1      -3.584   2.201 -20.959  0.00  0.00    -0.294 OA
ATOM     18  C   UNL     1      -1.467   2.156 -21.726  0.00  0.00    +0.081 C 
ATOM     19  C   UNL     1      -0.596   2.451 -22.646  0.00  0.00    +0.004 C 
ATOM     20  C   UNL     1       0.649   2.110 -22.493  0.00  0.00    -0.001 C 
ENDROOT
BRANCH  13  21
ATOM     21  O   UNL     1      -5.953   4.446 -24.324  0.00  0.00    -0.392 OA
ATOM     22  H   UNL     1      -6.328   4.692 -23.464  0.00  0.00    +0.210 HD
ENDBRANCH  13  21
BRANCH  15  23
ATOM     23  O   UNL     1      -3.958   2.836 -22.030  0.00  0.00    -0.380 OA
ATOM     24  H   UNL     1      -3.884   1.896 -21.805  0.00  0.00    +0.211 HD
ENDBRANCH  15  23
TORSDOF 2
ENDMDL
MODEL 5
REMARK VINA RESULT:    -9.400      2.530      6.084
REMARK INTER + INTRA:         -10.224
REMARK INTER:                 -10.224
REMARK INTRA:                   0.000
REMARK UNBOUND:                 0.000
REMARK  Name = C[C@@]12CCC[C@H]1[C@@H]1CC(=O)[C@@]3(O)C[C@@H](O)CC[C@]3(C)[C@H]1CC2 ZINC000118913924
REMARK  4 active torsions:
REMARK  status: ('A' for Active; 'I' for Inactive)
REMARK    1  A    between atoms: C_1  and  C_2
REMARK    2  A    between atoms: C_11  and  O_12
REMARK    3  A    between atoms: C_14  and  O_15
REMARK    4  A    between atoms: C_18  and  C_19
REMARK                            x       y       z     vdW  Elec       q    Type
REMARK                         _______ _______ _______ _____ _____    ______ ____
ROOT
ATOM      1  C   UNL     1       5.125   4.803 -23.086  0.00  0.00    +0.011 C 
ATOM      2  C   UNL     1       4.326   3.816 -22.807  0.00  0.00    -0.029 C 
ATOM      3  C   UNL     1       5.583   3.552 -22.607  0.00  0.00    +0.007 C 
ATOM      4  C   UNL     1       5.672   2.331 -22.170  0.00  0.00    +0.001 C 
ATOM      5  C   UNL     1       4.471   1.841 -22.100  0.00  0.00    +0.004 C 
ATOM      6  C   UNL     1       3.719   4.883 -23.234  0.00  0.00    +0.007 C 
ATOM      7  C   UNL     1       2.424   4.893 -23.348  0.00  0.00    +0.005 C 
ATOM      8  C   UNL     1       1.736   3.835 -23.035  0.00  0.00    +0.002 C 
ATOM      9  C   UNL     1       0.441   3.845 -23.149  0.00  0.00    +0.007 C 
ATOM     10  C   UNL     1       1.129   4.903 -23.462  0.00  0.00    +0.015 C 
ATOM     11  C   UNL     1      -0.166   4.912 -23.576  0.00  0.00    +0.012 C 
ATOM     12  C   UNL     1      -1.461   4.921 -23.690  0.00  0.00    +0.032 C 
ATOM     13  C   UNL     1      -2.149   3.864 -23.377  0.00  0.00    +0.118 C 
ATOM     14  C   UNL     1      -1.542   2.797 -22.949  0.00  0.00    +0.074 C 
ATOM     15  C   UNL     1      -0.246   2.787 -22.835  0.00  0.00    +0.131 C 
ATOM     16  C   UNL     1       0.360   1.720 -22.408  0.00  0.00    +0.165 C 
ATOM     17  O   UNL     1      -0.327   0.662 -22.095  0.00  0.00    -0.294 OA
ATOM     18  C   UNL     1       1.656   1.711 -22.294  0.00  0.00    +0.081 C 
ATOM     19  C   UNL     1       2.344   2.769 -22.608  0.00  0.00    +0.004 C 
ATOM     20  C   UNL     1       3.639   2.759 -22.494  0.00  0.00    -0.001 C 
ENDROOT
BRANCH  13  21
ATOM     21  O   UNL     1      -3.443   3.873 -23.490  0.00  0.00    -0.392 OA
ATOM     22  H   UNL     1      -3.764   4.789 -23.469  0.00  0.00    +0.210 HD
ENDBRANCH  13  21
BRANCH  15  23
ATOM     23  O   UNL     1      -0.934   1.729 -22.522  0.00  0.00    -0.380 OA
ATOM     24  H   UNL     1      -0.423   1.183 -21.905  0.00  0.00    +0.211 HD
ENDBRANCH  15  23
TORSDOF 2
ENDMDL
MODEL 6
REMARK VINA RESULT:    -9.363      2.466      6.438
REMARK INTER + INTRA:         -10.184
REMARK INTER:                 -10.184
REMARK INTRA:                   0.000
REMARK UNBOUND:                 0.000
REMARK  Name = C[C@@]12CCC[C@H]1[C@@H]1CC(=O)[C@@]3(O)C[C@@H](O)CC[C@]3(C)[C@H]1CC2 ZINC000118913924
REMARK  4 active torsions:
REMARK  status: ('A' for Active; 'I' for Inactive)
REMARK    1  A    between atoms: C_1  and  C_2
REMARK    2  A    between atoms: C_11  and  O_12
REMARK    3  A    between atoms: C_14  and  O_15
REMARK    4  A    between atoms: C_18  and  C_19
REMARK                            x       y       z     vdW  Elec       q    Type
REMARK                         _______ _______ _______ _____ _____    ______ ____
ROOT
ATOM      1  C   UNL     1       4.666   1.067 -21.990  0.00  0.00    +0.011 C 
ATOM      2  C   UNL     1       3.988   2.087 -22.425  0.00  0.00    -0.029 C 
ATOM      3  C   UNL     1       5.271   2.192 -22.600  0.00  0.00    +0.007 C 
ATOM      4  C   UNL     1       5.505   3.331 -23.181  0.00  0.00    +0.001 C 
ATOM      5  C   UNL     1       4.367   3.930 -23.365  0.00  0.00    +0.004 C 
ATOM      6  C   UNL     1       3.256   1.152 -21.897  0.00  0.00    +0.007 C 
ATOM      7  C   UNL     1       1.964   1.291 -21.841  0.00  0.00    +0.005 C 
ATOM      8  C   UNL     1       1.405   2.365 -22.314  0.00  0.00    +0.002 C 
ATOM      9  C   UNL     1       0.114   2.504 -22.257  0.00  0.00    +0.007 C 
ATOM     10  C   UNL     1       0.672   1.430 -21.785  0.00  0.00    +0.015 C 
ATOM     11  C   UNL     1      -0.618   1.569 -21.729  0.00  0.00    +0.012 C 
ATOM     12  C   UNL     1      -1.910   1.708 -21.673  0.00  0.00    +0.032 C 
ATOM     13  C   UNL     1      -2.469   2.782 -22.146  0.00  0.00    +0.118 C 
ATOM     14  C   UNL     1      -1.737   3.717 -22.674  0.00  0.00    +0.074 C 
ATOM     15  C   UNL     1      -0.445   3.578 -22.730  0.00  0.00    +0.131 C 
ATOM     16  C   UNL     1       0.286   4.513 -23.259  0.00  0.00    +0.165 C 
ATOM     17  O   UNL     1      -0.273   5.588 -23.732  0.00  0.00    -0.294 OA
ATOM     18  C   UNL     1       1.578   4.374 -23.315  0.00  0.00    +0.081 C 
ATOM     19  C   UNL     1       2.137   3.300 -22.842  0.00  0.00    +0.004 C 
ATOM     20  C   UNL     1       3.429   3.161 -22.898  0.00  0.00    -0.001 C 
ENDROOT
BRANCH  13  21
ATOM     21  O   UNL     1      -3.760   2.921 -22.090  0.00  0.00    -0.392 OA
ATOM     22  H   UNL     1      -4.031   3.059 -21.168  0.00  0.00    +0.210 HD
ENDBRANCH  13  21
BRANCH  15  23
ATOM     23  O   UNL     1      -1.004   4.652 -23.203  0.00  0.00    -0.380 OA
ATOM     24  H   UNL     1      -1.051   5.326 -22.507  0.00  0.00    +0.211 HD
ENDBRANCH  15  23
TORSDOF 2
ENDMDL
MODEL 7
REMARK VINA RESULT:    -8.879      3.377      7.159
REMARK INTER + INTRA:          -9.657
REMARK INTER:                  -9.657
REMARK INTRA:                   0.000
REMARK UNBOUND:                 0.000
REMARK  Name = C[C@@]12CCC[C@H]1[C@@H]1CC(=O)[C@@]3(O)C[C@@H](O)CC[C@]3(C)[C@H]1CC2 ZINC000118913924
REMARK  4 active torsions:
REMARK  status: ('A' for Active; 'I' for Inactive)
REMARK    1  A    between atoms: C_1  and  C_2
REMARK    2  A    between atoms: C_11  and  O_12
REMARK    3  A    between atoms: C_14  and  O_15
REMARK    4  A    between atoms: C_18  and  C_19
REMARK                            x       y       z     vdW  Elec       q    Type
REMARK                         _______ _______ _______ _____ _____    ______ ____
ROOT
ATOM      1  C   UNL     1       5.975   6.277 -22.129  0.00  0.00    +0.011 C 
ATOM      2  C   UNL     1       5.638   5.131 -22.640  0.00  0.00    -0.029 C 
ATOM      3  C   UNL     1       6.901   5.230 -22.353  0.00  0.00    +0.007 C 
ATOM      4  C   UNL     1       7.476   4.109 -22.675  0.00  0.00    +0.001 C 
ATOM      5  C   UNL     1       6.568   3.317 -23.161  0.00  0.00    +0.004 C 
ATOM      6  C   UNL     1       4.649   5.964 -22.512  0.00  0.00    +0.007 C 
ATOM      7  C   UNL     1       3.452   5.615 -22.883  0.00  0.00    +0.005 C 
ATOM      8  C   UNL     1       3.246   4.433 -23.382  0.00  0.00    +0.002 C 
ATOM      9  C   UNL     1       2.049   4.085 -23.753  0.00  0.00    +0.007 C 
ATOM     10  C   UNL     1       2.256   5.267 -23.254  0.00  0.00    +0.015 C 
ATOM     11  C   UNL     1       1.060   4.919 -23.625  0.00  0.00    +0.012 C 
ATOM     12  C   UNL     1      -0.136   4.569 -23.996  0.00  0.00    +0.032 C 
ATOM     13  C   UNL     1      -0.343   3.387 -24.495  0.00  0.00    +0.118 C 
ATOM     14  C   UNL     1       0.646   2.554 -24.624  0.00  0.00    +0.074 C 
ATOM     15  C   UNL     1       1.843   2.902 -24.253  0.00  0.00    +0.131 C 
ATOM     16  C   UNL     1       2.832   2.069 -24.381  0.00  0.00    +0.165 C 
ATOM     17  O   UNL     1       2.625   0.886 -24.881  0.00  0.00    -0.294 OA
ATOM     18  C   UNL     1       4.028   2.418 -24.010  0.00  0.00    +0.081 C 
ATOM     19  C   UNL     1       4.235   3.600 -23.511  0.00  0.00    +0.004 C 
ATOM     20  C   UNL     1       5.432   3.949 -23.140  0.00  0.00    -0.001 C 
ENDROOT
BRANCH  13  21
ATOM     21  O   UNL     1      -1.539   3.038 -24.866  0.00  0.00    -0.392 OA
ATOM     22  H   UNL     1      -1.486   2.250 -25.430  0.00  0.00    +0.210 HD
ENDBRANCH  13  21
BRANCH  15  23
ATOM     23  O   UNL     1       1.636   1.720 -24.752  0.00  0.00    -0.380 OA
ATOM     24  H   UNL     1       1.247   1.806 -25.636  0.00  0.00    +0.211 HD
ENDBRANCH  15  23
TORSDOF 2
ENDMDL
