MODEL 1
REMARK VINA RESULT:    -8.504      0.000      0.000
REMARK INTER + INTRA:         -15.891
REMARK INTER:                 -13.551
REMARK INTRA:                  -2.339
REMARK UNBOUND:                -1.422
REMARK  Name = CCCCCCCCCCCc1c(O)c(O)cc2nc3ccc(OC)cc3nc12                            ZINC000103006380
REMARK  15 active torsions:
REMARK  status: ('A' for Active; 'I' for Inactive)
REMARK    1  A    between atoms: C_1  and  C_2
REMARK    2  A    between atoms: C_2  and  C_3
REMARK    3  A    between atoms: C_3  and  C_4
REMARK    4  A    between atoms: C_4  and  C_5
REMARK    5  A    between atoms: C_5  and  C_6
REMARK    6  A    between atoms: C_6  and  C_7
REMARK    7  A    between atoms: C_7  and  C_8
REMARK    8  A    between atoms: C_8  and  C_9
REMARK    9  A    between atoms: C_9  and  C_10
REMARK   10  A    between atoms: C_10  and  C_11
REMARK   11  A    between atoms: C_11  and  C_12
REMARK   12  A    between atoms: C_13  and  O_14
REMARK   13  A    between atoms: C_15  and  O_16
REMARK   14  A    between atoms: C_23  and  O_24
REMARK   15  A    between atoms: O_24  and  C_25
REMARK                            x       y       z     vdW  Elec       q    Type
REMARK                         _______ _______ _______ _____ _____    ______ ____
ROOT
ATOM      1  C   UNL     1       3.522   3.280 -23.919  0.00  0.00    +0.025 A 
ATOM      2  C   UNL     1       4.493   3.987 -23.423  0.00  0.00    +0.164 A 
ATOM      3  C   UNL     1       4.254   5.157 -22.910  0.00  0.00    +0.161 A 
ATOM      4  C   UNL     1       3.040   5.622 -22.893  0.00  0.00    +0.079 A 
ATOM      5  C   UNL     1       2.068   4.918 -23.388  0.00  0.00    +0.094 A 
ATOM      6  N   UNL     1       0.854   5.383 -23.370  0.00  0.00    -0.243 NA
ATOM      7  C   UNL     1      -0.120   4.680 -23.865  0.00  0.00    +0.090 A 
ATOM      8  C   UNL     1      -1.333   5.146 -23.847  0.00  0.00    +0.033 A 
ATOM      9  C   UNL     1      -2.308   4.443 -24.342  0.00  0.00    +0.048 A 
ATOM     10  C   UNL     1      -2.068   3.273 -24.855  0.00  0.00    +0.122 A 
ATOM     11  C   UNL     1      -0.856   2.805 -24.874  0.00  0.00    +0.075 A 
ATOM     12  C   UNL     1       0.120   3.510 -24.378  0.00  0.00    +0.093 A 
ATOM     13  N   UNL     1       1.333   3.043 -24.396  0.00  0.00    -0.243 NA
ATOM     14  C   UNL     1       2.306   3.747 -23.901  0.00  0.00    +0.097 A 
ENDROOT
BRANCH   2  15
ATOM     15  O   UNL     1       5.707   3.520 -23.440  0.00  0.00    -0.503 OA
ATOM     16  H   UNL     1       5.855   2.595 -23.422  0.00  0.00    +0.292 HD
ENDBRANCH   2  15
BRANCH   3  17
ATOM     17  O   UNL     1       5.227   5.861 -22.415  0.00  0.00    -0.503 OA
ATOM     18  H   UNL     1       5.641   5.592 -21.618  0.00  0.00    +0.292 HD
ENDBRANCH   3  17
BRANCH  10  19
ATOM     19  O   UNL     1      -3.044   2.569 -25.351  0.00  0.00    -0.495 OA
ATOM     20  C   UNL     1      -3.943   3.138 -26.096  0.00  0.00    +0.277 C 
ENDBRANCH  10  19
BRANCH   1  21
ATOM     21  C   UNL     1       3.760   2.111 -24.431  0.00  0.00    +0.041 C 
BRANCH  21  22
ATOM     22  C   UNL     1       3.293   1.042 -23.857  0.00  0.00    +0.005 C 
BRANCH  22  23
ATOM     23  C   UNL     1       3.646   0.749 -22.640  0.00  0.00    +0.000 C 
BRANCH  23  24
ATOM     24  C   UNL     1       2.740   0.523 -21.736  0.00  0.00    +0.000 C 
BRANCH  24  25
ATOM     25  C   UNL     1       2.342   1.486 -20.959  0.00  0.00    +0.000 C 
BRANCH  25  26
ATOM     26  C   UNL     1       1.102   1.875 -20.987  0.00  0.00    +0.000 C 
BRANCH  26  27
ATOM     27  C   UNL     1       0.210   1.159 -21.604  0.00  0.00    -0.000 C 
BRANCH  27  28
ATOM     28  C   UNL     1      -1.049   1.460 -21.504  0.00  0.00    -0.000 C 
BRANCH  28  29
ATOM     29  C   UNL     1      -1.405   2.642 -21.094  0.00  0.00    -0.000 C 
BRANCH  29  31
ATOM     30  C   UNL     1      -3.132   3.721 -20.133  0.00  0.00    +0.004 C 
ATOM     31  C   UNL     1      -2.660   2.979 -21.091  0.00  0.00    -0.003 C 
ENDBRANCH  29  31
ENDBRANCH  28  29
ENDBRANCH  27  28
ENDBRANCH  26  27
ENDBRANCH  25  26
ENDBRANCH  24  25
ENDBRANCH  23  24
ENDBRANCH  22  23
ENDBRANCH  21  22
ENDBRANCH   1  21
TORSDOF 13
ENDMDL
MODEL 2
REMARK VINA RESULT:    -8.468      2.276      5.913
REMARK INTER + INTRA:         -15.830
REMARK INTER:                 -14.371
REMARK INTRA:                  -1.459
REMARK UNBOUND:                -1.422
REMARK  Name = CCCCCCCCCCCc1c(O)c(O)cc2nc3ccc(OC)cc3nc12                            ZINC000103006380
REMARK  15 active torsions:
REMARK  status: ('A' for Active; 'I' for Inactive)
REMARK    1  A    between atoms: C_1  and  C_2
REMARK    2  A    between atoms: C_2  and  C_3
REMARK    3  A    between atoms: C_3  and  C_4
REMARK    4  A    between atoms: C_4  and  C_5
REMARK    5  A    between atoms: C_5  and  C_6
REMARK    6  A    between atoms: C_6  and  C_7
REMARK    7  A    between atoms: C_7  and  C_8
REMARK    8  A    between atoms: C_8  and  C_9
REMARK    9  A    between atoms: C_9  and  C_10
REMARK   10  A    between atoms: C_10  and  C_11
REMARK   11  A    between atoms: C_11  and  C_12
REMARK   12  A    between atoms: C_13  and  O_14
REMARK   13  A    between atoms: C_15  and  O_16
REMARK   14  A    between atoms: C_23  and  O_24
REMARK   15  A    between atoms: O_24  and  C_25
REMARK                            x       y       z     vdW  Elec       q    Type
REMARK                         _______ _______ _______ _____ _____    ______ ____
ROOT
ATOM      1  C   UNL     1       1.941   3.680 -23.923  0.00  0.00    +0.025 A 
ATOM      2  C   UNL     1       1.962   2.469 -24.393  0.00  0.00    +0.164 A 
ATOM      3  C   UNL     1       3.075   1.799 -24.423  0.00  0.00    +0.161 A 
ATOM      4  C   UNL     1       4.171   2.342 -23.983  0.00  0.00    +0.079 A 
ATOM      5  C   UNL     1       4.153   3.553 -23.513  0.00  0.00    +0.094 A 
ATOM      6  N   UNL     1       5.249   4.095 -23.072  0.00  0.00    -0.243 NA
ATOM      7  C   UNL     1       5.233   5.306 -22.601  0.00  0.00    +0.090 A 
ATOM      8  C   UNL     1       6.329   5.847 -22.161  0.00  0.00    +0.033 A 
ATOM      9  C   UNL     1       6.313   7.059 -21.690  0.00  0.00    +0.048 A 
ATOM     10  C   UNL     1       5.199   7.729 -21.660  0.00  0.00    +0.122 A 
ATOM     11  C   UNL     1       4.102   7.188 -22.100  0.00  0.00    +0.075 A 
ATOM     12  C   UNL     1       4.119   5.975 -22.571  0.00  0.00    +0.093 A 
ATOM     13  N   UNL     1       3.022   5.434 -23.011  0.00  0.00    -0.243 NA
ATOM     14  C   UNL     1       3.039   4.223 -23.482  0.00  0.00    +0.097 A 
ENDROOT
BRANCH   2  15
ATOM     15  O   UNL     1       0.865   1.926 -24.834  0.00  0.00    -0.503 OA
ATOM     16  H   UNL     1       0.443   2.273 -25.595  0.00  0.00    +0.292 HD
ENDBRANCH   2  15
BRANCH   3  17
ATOM     17  O   UNL     1       3.093   0.588 -24.893  0.00  0.00    -0.503 OA
ATOM     18  H   UNL     1       3.412  -0.115 -24.363  0.00  0.00    +0.292 HD
ENDBRANCH   3  17
BRANCH  10  19
ATOM     19  O   UNL     1       5.183   8.941 -21.189  0.00  0.00    -0.495 OA
ATOM     20  C   UNL     1       4.185   9.729 -21.454  0.00  0.00    +0.277 C 
ENDBRANCH  10  19
BRANCH   1  21
ATOM     21  C   UNL     1       0.829   4.350 -23.892  0.00  0.00    +0.041 C 
BRANCH  21  22
ATOM     22  C   UNL     1       0.005   4.197 -22.898  0.00  0.00    +0.005 C 
BRANCH  22  23
ATOM     23  C   UNL     1      -1.272   4.365 -23.080  0.00  0.00    +0.000 C 
BRANCH  23  24
ATOM     24  C   UNL     1      -1.783   4.228 -24.267  0.00  0.00    +0.000 C 
BRANCH  24  25
ATOM     25  C   UNL     1      -3.053   4.430 -24.456  0.00  0.00    +0.000 C 
BRANCH  25  26
ATOM     26  C   UNL     1      -3.908   3.488 -24.189  0.00  0.00    +0.000 C 
BRANCH  26  27
ATOM     27  C   UNL     1      -4.976   3.757 -23.499  0.00  0.00    -0.000 C 
BRANCH  27  28
ATOM     28  C   UNL     1      -4.937   3.724 -22.201  0.00  0.00    -0.000 C 
BRANCH  28  29
ATOM     29  C   UNL     1      -4.593   2.630 -21.587  0.00  0.00    -0.000 C 
BRANCH  29  31
ATOM     30  C   UNL     1      -3.279   3.757 -20.149  0.00  0.00    +0.004 C 
ATOM     31  C   UNL     1      -3.616   2.645 -20.731  0.00  0.00    -0.003 C 
ENDBRANCH  29  31
ENDBRANCH  28  29
ENDBRANCH  27  28
ENDBRANCH  26  27
ENDBRANCH  25  26
ENDBRANCH  24  25
ENDBRANCH  23  24
ENDBRANCH  22  23
ENDBRANCH  21  22
ENDBRANCH   1  21
TORSDOF 13
ENDMDL
MODEL 3
REMARK VINA RESULT:    -8.092      1.525      6.407
REMARK INTER + INTRA:         -15.191
REMARK INTER:                 -13.119
REMARK INTRA:                  -2.071
REMARK UNBOUND:                -1.422
REMARK  Name = CCCCCCCCCCCc1c(O)c(O)cc2nc3ccc(OC)cc3nc12                            ZINC000103006380
REMARK  15 active torsions:
REMARK  status: ('A' for Active; 'I' for Inactive)
REMARK    1  A    between atoms: C_1  and  C_2
REMARK    2  A    between atoms: C_2  and  C_3
REMARK    3  A    between atoms: C_3  and  C_4
REMARK    4  A    between atoms: C_4  and  C_5
REMARK    5  A    between atoms: C_5  and  C_6
REMARK    6  A    between atoms: C_6  and  C_7
REMARK    7  A    between atoms: C_7  and  C_8
REMARK    8  A    between atoms: C_8  and  C_9
REMARK    9  A    between atoms: C_9  and  C_10
REMARK   10  A    between atoms: C_10  and  C_11
REMARK   11  A    between atoms: C_11  and  C_12
REMARK   12  A    between atoms: C_13  and  O_14
REMARK   13  A    between atoms: C_15  and  O_16
REMARK   14  A    between atoms: C_23  and  O_24
REMARK   15  A    between atoms: O_24  and  C_25
REMARK                            x       y       z     vdW  Elec       q    Type
REMARK                         _______ _______ _______ _____ _____    ______ ____
ROOT
ATOM      1  C   UNL     1      -3.724   4.090 -23.548  0.00  0.00    +0.025 A 
ATOM      2  C   UNL     1      -4.730   3.719 -24.282  0.00  0.00    +0.164 A 
ATOM      3  C   UNL     1      -4.533   3.301 -25.497  0.00  0.00    +0.161 A 
ATOM      4  C   UNL     1      -3.326   3.256 -25.980  0.00  0.00    +0.079 A 
ATOM      5  C   UNL     1      -2.320   3.627 -25.248  0.00  0.00    +0.094 A 
ATOM      6  N   UNL     1      -1.114   3.581 -25.731  0.00  0.00    -0.243 NA
ATOM      7  C   UNL     1      -0.105   3.952 -25.000  0.00  0.00    +0.090 A 
ATOM      8  C   UNL     1       1.100   3.905 -25.484  0.00  0.00    +0.033 A 
ATOM      9  C   UNL     1       2.110   4.276 -24.753  0.00  0.00    +0.048 A 
ATOM     10  C   UNL     1       1.912   4.693 -23.538  0.00  0.00    +0.122 A 
ATOM     11  C   UNL     1       0.706   4.740 -23.053  0.00  0.00    +0.075 A 
ATOM     12  C   UNL     1      -0.303   4.368 -23.786  0.00  0.00    +0.093 A 
ATOM     13  N   UNL     1      -1.508   4.415 -23.301  0.00  0.00    -0.243 NA
ATOM     14  C   UNL     1      -2.516   4.044 -24.032  0.00  0.00    +0.097 A 
ENDROOT
BRANCH   2  15
ATOM     15  O   UNL     1      -5.937   3.765 -23.799  0.00  0.00    -0.503 OA
ATOM     16  H   UNL     1      -6.606   3.213 -24.154  0.00  0.00    +0.292 HD
ENDBRANCH   2  15
BRANCH   3  17
ATOM     17  O   UNL     1      -5.540   2.930 -26.229  0.00  0.00    -0.503 OA
ATOM     18  H   UNL     1      -6.074   2.209 -25.959  0.00  0.00    +0.292 HD
ENDBRANCH   3  17
BRANCH  10  19
ATOM     19  O   UNL     1       2.922   5.065 -22.806  0.00  0.00    -0.495 OA
ATOM     20  C   UNL     1       4.117   4.641 -23.086  0.00  0.00    +0.277 C 
ENDBRANCH  10  19
BRANCH   1  21
ATOM     21  C   UNL     1      -3.920   4.507 -22.334  0.00  0.00    +0.041 C 
BRANCH  21  22
ATOM     22  C   UNL     1      -4.053   3.650 -21.365  0.00  0.00    +0.005 C 
BRANCH  22  23
ATOM     23  C   UNL     1      -3.173   3.608 -20.409  0.00  0.00    +0.000 C 
BRANCH  23  24
ATOM     24  C   UNL     1      -2.100   2.887 -20.544  0.00  0.00    +0.000 C 
BRANCH  24  25
ATOM     25  C   UNL     1      -2.155   1.749 -21.169  0.00  0.00    +0.000 C 
BRANCH  25  26
ATOM     26  C   UNL     1      -1.102   1.288 -21.776  0.00  0.00    +0.000 C 
BRANCH  26  27
ATOM     27  C   UNL     1       0.077   1.467 -21.258  0.00  0.00    -0.000 C 
BRANCH  27  28
ATOM     28  C   UNL     1       1.137   1.359 -22.001  0.00  0.00    -0.000 C 
BRANCH  28  29
ATOM     29  C   UNL     1       2.307   1.645 -21.510  0.00  0.00    -0.000 C 
BRANCH  29  31
ATOM     30  C   UNL     1       3.535   0.926 -23.255  0.00  0.00    +0.004 C 
ATOM     31  C   UNL     1       3.368   1.051 -21.972  0.00  0.00    -0.003 C 
ENDBRANCH  29  31
ENDBRANCH  28  29
ENDBRANCH  27  28
ENDBRANCH  26  27
ENDBRANCH  25  26
ENDBRANCH  24  25
ENDBRANCH  23  24
ENDBRANCH  22  23
ENDBRANCH  21  22
ENDBRANCH   1  21
TORSDOF 13
ENDMDL
MODEL 4
REMARK VINA RESULT:    -7.838      2.580      6.444
REMARK INTER + INTRA:         -14.759
REMARK INTER:                 -13.632
REMARK INTRA:                  -1.127
REMARK UNBOUND:                -1.422
REMARK  Name = CCCCCCCCCCCc1c(O)c(O)cc2nc3ccc(OC)cc3nc12                            ZINC000103006380
REMARK  15 active torsions:
REMARK  status: ('A' for Active; 'I' for Inactive)
REMARK    1  A    between atoms: C_1  and  C_2
REMARK    2  A    between atoms: C_2  and  C_3
REMARK    3  A    between atoms: C_3  and  C_4
REMARK    4  A    between atoms: C_4  and  C_5
REMARK    5  A    between atoms: C_5  and  C_6
REMARK    6  A    between atoms: C_6  and  C_7
REMARK    7  A    between atoms: C_7  and  C_8
REMARK    8  A    between atoms: C_8  and  C_9
REMARK    9  A    between atoms: C_9  and  C_10
REMARK   10  A    between atoms: C_10  and  C_11
REMARK   11  A    between atoms: C_11  and  C_12
REMARK   12  A    between atoms: C_13  and  O_14
REMARK   13  A    between atoms: C_15  and  O_16
REMARK   14  A    between atoms: C_23  and  O_24
REMARK   15  A    between atoms: O_24  and  C_25
REMARK                            x       y       z     vdW  Elec       q    Type
REMARK                         _______ _______ _______ _____ _____    ______ ____
ROOT
ATOM      1  C   UNL     1       2.349   2.932 -22.871  0.00  0.00    +0.025 A 
ATOM      2  C   UNL     1       1.935   1.704 -22.967  0.00  0.00    +0.164 A 
ATOM      3  C   UNL     1       2.790   0.725 -22.972  0.00  0.00    +0.161 A 
ATOM      4  C   UNL     1       4.062   0.975 -22.880  0.00  0.00    +0.079 A 
ATOM      5  C   UNL     1       4.479   2.201 -22.785  0.00  0.00    +0.094 A 
ATOM      6  N   UNL     1       5.751   2.450 -22.693  0.00  0.00    -0.243 NA
ATOM      7  C   UNL     1       6.169   3.677 -22.598  0.00  0.00    +0.090 A 
ATOM      8  C   UNL     1       7.441   3.925 -22.506  0.00  0.00    +0.033 A 
ATOM      9  C   UNL     1       7.861   5.152 -22.410  0.00  0.00    +0.048 A 
ATOM     10  C   UNL     1       7.005   6.131 -22.406  0.00  0.00    +0.122 A 
ATOM     11  C   UNL     1       5.732   5.884 -22.497  0.00  0.00    +0.075 A 
ATOM     12  C   UNL     1       5.314   4.655 -22.593  0.00  0.00    +0.093 A 
ATOM     13  N   UNL     1       4.041   4.408 -22.684  0.00  0.00    -0.243 NA
ATOM     14  C   UNL     1       3.624   3.181 -22.780  0.00  0.00    +0.097 A 
ENDROOT
BRANCH   2  15
ATOM     15  O   UNL     1       0.662   1.455 -23.058  0.00  0.00    -0.503 OA
ATOM     16  H   UNL     1       0.302   0.693 -22.648  0.00  0.00    +0.292 HD
ENDBRANCH   2  15
BRANCH   3  17
ATOM     17  O   UNL     1       2.374  -0.502 -23.067  0.00  0.00    -0.503 OA
ATOM     18  H   UNL     1       1.533  -0.683 -23.440  0.00  0.00    +0.292 HD
ENDBRANCH   3  17
BRANCH  10  19
ATOM     19  O   UNL     1       7.424   7.359 -22.310  0.00  0.00    -0.495 OA
ATOM     20  C   UNL     1       8.488   7.630 -21.616  0.00  0.00    +0.277 C 
ENDBRANCH  10  19
BRANCH   1  21
ATOM     21  C   UNL     1       1.496   3.910 -22.867  0.00  0.00    +0.041 C 
BRANCH  21  22
ATOM     22  C   UNL     1       0.961   4.313 -23.982  0.00  0.00    +0.005 C 
BRANCH  22  23
ATOM     23  C   UNL     1      -0.220   4.857 -23.979  0.00  0.00    +0.000 C 
BRANCH  23  24
ATOM     24  C   UNL     1      -1.272   4.124 -23.763  0.00  0.00    +0.000 C 
BRANCH  24  25
ATOM     25  C   UNL     1      -1.958   3.659 -24.764  0.00  0.00    +0.000 C 
BRANCH  25  26
ATOM     26  C   UNL     1      -3.165   4.090 -24.983  0.00  0.00    +0.000 C 
BRANCH  26  27
ATOM     27  C   UNL     1      -4.183   3.441 -24.501  0.00  0.00    -0.000 C 
BRANCH  27  28
ATOM     28  C   UNL     1      -4.973   4.015 -23.644  0.00  0.00    -0.000 C 
BRANCH  28  29
ATOM     29  C   UNL     1      -5.219   3.442 -22.502  0.00  0.00    -0.000 C 
BRANCH  29  31
ATOM     30  C   UNL     1      -3.642   3.621 -20.906  0.00  0.00    +0.004 C 
ATOM     31  C   UNL     1      -4.249   2.918 -21.815  0.00  0.00    -0.003 C 
ENDBRANCH  29  31
ENDBRANCH  28  29
ENDBRANCH  27  28
ENDBRANCH  26  27
ENDBRANCH  25  26
ENDBRANCH  24  25
ENDBRANCH  23  24
ENDBRANCH  22  23
ENDBRANCH  21  22
ENDBRANCH   1  21
TORSDOF 13
ENDMDL
MODEL 5
REMARK VINA RESULT:    -7.493      2.692      5.504
REMARK INTER + INTRA:         -14.171
REMARK INTER:                 -12.676
REMARK INTRA:                  -1.495
REMARK UNBOUND:                -1.422
REMARK  Name = CCCCCCCCCCCc1c(O)c(O)cc2nc3ccc(OC)cc3nc12                            ZINC000103006380
REMARK  15 active torsions:
REMARK  status: ('A' for Active; 'I' for Inactive)
REMARK    1  A    between atoms: C_1  and  C_2
REMARK    2  A    between atoms: C_2  and  C_3
REMARK    3  A    between atoms: C_3  and  C_4
REMARK    4  A    between atoms: C_4  and  C_5
REMARK    5  A    between atoms: C_5  and  C_6
REMARK    6  A    between atoms: C_6  and  C_7
REMARK    7  A    between atoms: C_7  and  C_8
REMARK    8  A    between atoms: C_8  and  C_9
REMARK    9  A    between atoms: C_9  and  C_10
REMARK   10  A    between atoms: C_10  and  C_11
REMARK   11  A    between atoms: C_11  and  C_12
REMARK   12  A    between atoms: C_13  and  O_14
REMARK   13  A    between atoms: C_15  and  O_16
REMARK   14  A    between atoms: C_23  and  O_24
REMARK   15  A    between atoms: O_24  and  C_25
REMARK                            x       y       z     vdW  Elec       q    Type
REMARK                         _______ _______ _______ _____ _____    ______ ____
ROOT
ATOM      1  C   UNL     1       4.284   2.135 -22.583  0.00  0.00    +0.025 A 
ATOM      2  C   UNL     1       5.144   1.377 -21.970  0.00  0.00    +0.164 A 
ATOM      3  C   UNL     1       4.743   0.536 -21.063  0.00  0.00    +0.161 A 
ATOM      4  C   UNL     1       3.480   0.453 -20.769  0.00  0.00    +0.079 A 
ATOM      5  C   UNL     1       2.619   1.210 -21.380  0.00  0.00    +0.094 A 
ATOM      6  N   UNL     1       1.356   1.126 -21.085  0.00  0.00    -0.243 NA
ATOM      7  C   UNL     1       0.493   1.883 -21.696  0.00  0.00    +0.090 A 
ATOM      8  C   UNL     1      -0.769   1.799 -21.400  0.00  0.00    +0.033 A 
ATOM      9  C   UNL     1      -1.633   2.555 -22.010  0.00  0.00    +0.048 A 
ATOM     10  C   UNL     1      -1.231   3.396 -22.917  0.00  0.00    +0.122 A 
ATOM     11  C   UNL     1       0.032   3.481 -23.213  0.00  0.00    +0.075 A 
ATOM     12  C   UNL     1       0.895   2.723 -22.601  0.00  0.00    +0.093 A 
ATOM     13  N   UNL     1       2.157   2.808 -22.898  0.00  0.00    -0.243 NA
ATOM     14  C   UNL     1       3.019   2.052 -22.287  0.00  0.00    +0.097 A 
ENDROOT
BRANCH   2  15
ATOM     15  O   UNL     1       6.408   1.461 -22.265  0.00  0.00    -0.503 OA
ATOM     16  H   UNL     1       7.028   0.906 -21.834  0.00  0.00    +0.292 HD
ENDBRANCH   2  15
BRANCH   3  17
ATOM     17  O   UNL     1       5.604  -0.221 -20.452  0.00  0.00    -0.503 OA
ATOM     18  H   UNL     1       5.496  -0.412 -19.541  0.00  0.00    +0.292 HD
ENDBRANCH   3  17
BRANCH  10  19
ATOM     19  O   UNL     1      -2.095   4.153 -23.528  0.00  0.00    -0.495 OA
ATOM     20  C   UNL     1      -3.240   3.665 -23.900  0.00  0.00    +0.277 C 
ENDBRANCH  10  19
BRANCH   1  21
ATOM     21  C   UNL     1       4.684   2.975 -23.488  0.00  0.00    +0.041 C 
BRANCH  21  22
ATOM     22  C   UNL     1       4.550   4.254 -23.294  0.00  0.00    +0.005 C 
BRANCH  22  23
ATOM     23  C   UNL     1       5.562   4.960 -22.882  0.00  0.00    +0.000 C 
BRANCH  23  24
ATOM     24  C   UNL     1       6.764   4.665 -23.278  0.00  0.00    +0.000 C 
BRANCH  24  25
ATOM     25  C   UNL     1       7.753   4.695 -22.434  0.00  0.00    +0.000 C 
BRANCH  25  26
ATOM     26  C   UNL     1       7.533   4.508 -21.167  0.00  0.00    +0.000 C 
BRANCH  26  27
ATOM     27  C   UNL     1       8.031   5.331 -20.293  0.00  0.00    -0.000 C 
BRANCH  27  28
ATOM     28  C   UNL     1       7.305   6.304 -19.829  0.00  0.00    -0.000 C 
BRANCH  28  29
ATOM     29  C   UNL     1       7.510   7.522 -20.237  0.00  0.00    -0.000 C 
BRANCH  29  31
ATOM     30  C   UNL     1       5.372   8.027 -20.727  0.00  0.00    +0.004 C 
ATOM     31  C   UNL     1       6.639   8.105 -21.005  0.00  0.00    -0.003 C 
ENDBRANCH  29  31
ENDBRANCH  28  29
ENDBRANCH  27  28
ENDBRANCH  26  27
ENDBRANCH  25  26
ENDBRANCH  24  25
ENDBRANCH  23  24
ENDBRANCH  22  23
ENDBRANCH  21  22
ENDBRANCH   1  21
TORSDOF 13
ENDMDL
MODEL 6
REMARK VINA RESULT:    -7.309      2.557      5.999
REMARK INTER + INTRA:         -13.858
REMARK INTER:                 -12.957
REMARK INTRA:                  -0.902
REMARK UNBOUND:                -1.422
REMARK  Name = CCCCCCCCCCCc1c(O)c(O)cc2nc3ccc(OC)cc3nc12                            ZINC000103006380
REMARK  15 active torsions:
REMARK  status: ('A' for Active; 'I' for Inactive)
REMARK    1  A    between atoms: C_1  and  C_2
REMARK    2  A    between atoms: C_2  and  C_3
REMARK    3  A    between atoms: C_3  and  C_4
REMARK    4  A    between atoms: C_4  and  C_5
REMARK    5  A    between atoms: C_5  and  C_6
REMARK    6  A    between atoms: C_6  and  C_7
REMARK    7  A    between atoms: C_7  and  C_8
REMARK    8  A    between atoms: C_8  and  C_9
REMARK    9  A    between atoms: C_9  and  C_10
REMARK   10  A    between atoms: C_10  and  C_11
REMARK   11  A    between atoms: C_11  and  C_12
REMARK   12  A    between atoms: C_13  and  O_14
REMARK   13  A    between atoms: C_15  and  O_16
REMARK   14  A    between atoms: C_23  and  O_24
REMARK   15  A    between atoms: O_24  and  C_25
REMARK                            x       y       z     vdW  Elec       q    Type
REMARK                         _______ _______ _______ _____ _____    ______ ____
ROOT
ATOM      1  C   UNL     1       2.162   2.072 -23.490  0.00  0.00    +0.025 A 
ATOM      2  C   UNL     1       1.203   1.629 -22.734  0.00  0.00    +0.164 A 
ATOM      3  C   UNL     1       1.366   1.555 -21.447  0.00  0.00    +0.161 A 
ATOM      4  C   UNL     1       2.492   1.925 -20.914  0.00  0.00    +0.079 A 
ATOM      5  C   UNL     1       3.453   2.368 -21.667  0.00  0.00    +0.094 A 
ATOM      6  N   UNL     1       4.579   2.737 -21.133  0.00  0.00    -0.243 NA
ATOM      7  C   UNL     1       5.542   3.181 -21.885  0.00  0.00    +0.090 A 
ATOM      8  C   UNL     1       6.667   3.550 -21.351  0.00  0.00    +0.033 A 
ATOM      9  C   UNL     1       7.630   3.994 -22.103  0.00  0.00    +0.048 A 
ATOM     10  C   UNL     1       7.466   4.068 -23.390  0.00  0.00    +0.122 A 
ATOM     11  C   UNL     1       6.341   3.699 -23.926  0.00  0.00    +0.075 A 
ATOM     12  C   UNL     1       5.378   3.255 -23.172  0.00  0.00    +0.093 A 
ATOM     13  N   UNL     1       4.252   2.886 -23.708  0.00  0.00    -0.243 NA
ATOM     14  C   UNL     1       3.290   2.442 -22.955  0.00  0.00    +0.097 A 
ENDROOT
BRANCH   2  15
ATOM     15  O   UNL     1       0.076   1.259 -23.268  0.00  0.00    -0.503 OA
ATOM     16  H   UNL     1      -0.230   0.381 -23.157  0.00  0.00    +0.292 HD
ENDBRANCH   2  15
BRANCH   3  17
ATOM     17  O   UNL     1       0.405   1.112 -20.694  0.00  0.00    -0.503 OA
ATOM     18  H   UNL     1      -0.458   1.013 -21.045  0.00  0.00    +0.292 HD
ENDBRANCH   3  17
BRANCH  10  19
ATOM     19  O   UNL     1       8.430   4.512 -24.143  0.00  0.00    -0.495 OA
ATOM     20  C   UNL     1       8.649   5.789 -24.233  0.00  0.00    +0.277 C 
ENDBRANCH  10  19
BRANCH   1  21
ATOM     21  C   UNL     1       2.000   2.146 -24.776  0.00  0.00    +0.041 C 
BRANCH  21  22
ATOM     22  C   UNL     1       1.109   2.952 -25.273  0.00  0.00    +0.005 C 
BRANCH  22  23
ATOM     23  C   UNL     1       1.008   4.169 -24.824  0.00  0.00    +0.000 C 
BRANCH  23  24
ATOM     24  C   UNL     1      -0.128   4.599 -24.361  0.00  0.00    +0.000 C 
BRANCH  24  25
ATOM     25  C   UNL     1      -0.166   5.264 -23.245  0.00  0.00    +0.000 C 
BRANCH  25  26
ATOM     26  C   UNL     1      -1.049   4.965 -22.339  0.00  0.00    +0.000 C 
BRANCH  26  27
ATOM     27  C   UNL     1      -1.862   3.969 -22.529  0.00  0.00    -0.000 C 
BRANCH  27  28
ATOM     28  C   UNL     1      -2.530   3.476 -21.529  0.00  0.00    -0.000 C 
BRANCH  28  29
ATOM     29  C   UNL     1      -3.462   2.593 -21.741  0.00  0.00    -0.000 C 
BRANCH  29  31
ATOM     30  C   UNL     1      -5.519   3.327 -22.287  0.00  0.00    +0.004 C 
ATOM     31  C   UNL     1      -4.690   2.852 -21.405  0.00  0.00    -0.003 C 
ENDBRANCH  29  31
ENDBRANCH  28  29
ENDBRANCH  27  28
ENDBRANCH  26  27
ENDBRANCH  25  26
ENDBRANCH  24  25
ENDBRANCH  23  24
ENDBRANCH  22  23
ENDBRANCH  21  22
ENDBRANCH   1  21
TORSDOF 13
ENDMDL
MODEL 7
REMARK VINA RESULT:    -7.255      2.944      5.647
REMARK INTER + INTRA:         -13.765
REMARK INTER:                 -12.949
REMARK INTRA:                  -0.816
REMARK UNBOUND:                -1.422
REMARK  Name = CCCCCCCCCCCc1c(O)c(O)cc2nc3ccc(OC)cc3nc12                            ZINC000103006380
REMARK  15 active torsions:
REMARK  status: ('A' for Active; 'I' for Inactive)
REMARK    1  A    between atoms: C_1  and  C_2
REMARK    2  A    between atoms: C_2  and  C_3
REMARK    3  A    between atoms: C_3  and  C_4
REMARK    4  A    between atoms: C_4  and  C_5
REMARK    5  A    between atoms: C_5  and  C_6
REMARK    6  A    between atoms: C_6  and  C_7
REMARK    7  A    between atoms: C_7  and  C_8
REMARK    8  A    between atoms: C_8  and  C_9
REMARK    9  A    between atoms: C_9  and  C_10
REMARK   10  A    between atoms: C_10  and  C_11
REMARK   11  A    between atoms: C_11  and  C_12
REMARK   12  A    between atoms: C_13  and  O_14
REMARK   13  A    between atoms: C_15  and  O_16
REMARK   14  A    between atoms: C_23  and  O_24
REMARK   15  A    between atoms: O_24  and  C_25
REMARK                            x       y       z     vdW  Elec       q    Type
REMARK                         _______ _______ _______ _____ _____    ______ ____
ROOT
ATOM      1  C   UNL     1       4.598   4.043 -23.150  0.00  0.00    +0.025 A 
ATOM      2  C   UNL     1       5.328   2.976 -23.282  0.00  0.00    +0.164 A 
ATOM      3  C   UNL     1       6.557   2.969 -22.858  0.00  0.00    +0.161 A 
ATOM      4  C   UNL     1       7.057   4.031 -22.301  0.00  0.00    +0.079 A 
ATOM      5  C   UNL     1       6.329   5.099 -22.168  0.00  0.00    +0.094 A 
ATOM      6  N   UNL     1       6.830   6.161 -21.610  0.00  0.00    -0.243 NA
ATOM      7  C   UNL     1       6.103   7.230 -21.477  0.00  0.00    +0.090 A 
ATOM      8  C   UNL     1       6.604   8.291 -20.920  0.00  0.00    +0.033 A 
ATOM      9  C   UNL     1       5.877   9.362 -20.786  0.00  0.00    +0.048 A 
ATOM     10  C   UNL     1       4.649   9.368 -21.210  0.00  0.00    +0.122 A 
ATOM     11  C   UNL     1       4.146   8.307 -21.768  0.00  0.00    +0.075 A 
ATOM     12  C   UNL     1       4.875   7.236 -21.901  0.00  0.00    +0.093 A 
ATOM     13  N   UNL     1       4.372   6.175 -22.459  0.00  0.00    -0.243 NA
ATOM     14  C   UNL     1       5.100   5.107 -22.592  0.00  0.00    +0.097 A 
ENDROOT
BRANCH   2  15
ATOM     15  O   UNL     1       4.827   1.913 -23.840  0.00  0.00    -0.503 OA
ATOM     16  H   UNL     1       5.108   1.656 -24.696  0.00  0.00    +0.292 HD
ENDBRANCH   2  15
BRANCH   3  17
ATOM     17  O   UNL     1       7.284   1.901 -22.990  0.00  0.00    -0.503 OA
ATOM     18  H   UNL     1       7.177   1.352 -23.742  0.00  0.00    +0.292 HD
ENDBRANCH   3  17
BRANCH  10  19
ATOM     19  O   UNL     1       3.921  10.439 -21.077  0.00  0.00    -0.495 OA
ATOM     20  C   UNL     1       3.556  11.112 -22.126  0.00  0.00    +0.277 C 
ENDBRANCH  10  19
BRANCH   1  21
ATOM     21  C   UNL     1       3.371   4.050 -23.574  0.00  0.00    +0.041 C 
BRANCH  21  22
ATOM     22  C   UNL     1       2.401   3.740 -22.764  0.00  0.00    +0.005 C 
BRANCH  22  23
ATOM     23  C   UNL     1       1.589   2.770 -23.064  0.00  0.00    +0.000 C 
BRANCH  23  24
ATOM     24  C   UNL     1       1.172   1.961 -22.135  0.00  0.00    +0.000 C 
BRANCH  24  25
ATOM     25  C   UNL     1      -0.091   1.668 -22.046  0.00  0.00    +0.000 C 
BRANCH  25  26
ATOM     26  C   UNL     1      -0.937   2.167 -22.898  0.00  0.00    +0.000 C 
BRANCH  26  27
ATOM     27  C   UNL     1      -2.090   2.604 -22.489  0.00  0.00    -0.000 C 
BRANCH  27  28
ATOM     28  C   UNL     1      -2.264   2.906 -21.237  0.00  0.00    -0.000 C 
BRANCH  28  29
ATOM     29  C   UNL     1      -3.458   3.157 -20.787  0.00  0.00    -0.000 C 
BRANCH  29  31
ATOM     30  C   UNL     1      -5.537   2.735 -21.540  0.00  0.00    +0.004 C 
ATOM     31  C   UNL     1      -4.426   3.406 -21.618  0.00  0.00    -0.003 C 
ENDBRANCH  29  31
ENDBRANCH  28  29
ENDBRANCH  27  28
ENDBRANCH  26  27
ENDBRANCH  25  26
ENDBRANCH  24  25
ENDBRANCH  23  24
ENDBRANCH  22  23
ENDBRANCH  21  22
ENDBRANCH   1  21
TORSDOF 13
ENDMDL
MODEL 8
REMARK VINA RESULT:    -6.884      2.230      4.331
REMARK INTER + INTRA:         -13.134
REMARK INTER:                 -11.924
REMARK INTRA:                  -1.210
REMARK UNBOUND:                -1.422
REMARK  Name = CCCCCCCCCCCc1c(O)c(O)cc2nc3ccc(OC)cc3nc12                            ZINC000103006380
REMARK  15 active torsions:
REMARK  status: ('A' for Active; 'I' for Inactive)
REMARK    1  A    between atoms: C_1  and  C_2
REMARK    2  A    between atoms: C_2  and  C_3
REMARK    3  A    between atoms: C_3  and  C_4
REMARK    4  A    between atoms: C_4  and  C_5
REMARK    5  A    between atoms: C_5  and  C_6
REMARK    6  A    between atoms: C_6  and  C_7
REMARK    7  A    between atoms: C_7  and  C_8
REMARK    8  A    between atoms: C_8  and  C_9
REMARK    9  A    between atoms: C_9  and  C_10
REMARK   10  A    between atoms: C_10  and  C_11
REMARK   11  A    between atoms: C_11  and  C_12
REMARK   12  A    between atoms: C_13  and  O_14
REMARK   13  A    between atoms: C_15  and  O_16
REMARK   14  A    between atoms: C_23  and  O_24
REMARK   15  A    between atoms: O_24  and  C_25
REMARK                            x       y       z     vdW  Elec       q    Type
REMARK                         _______ _______ _______ _____ _____    ______ ____
ROOT
ATOM      1  C   UNL     1       0.593   2.059 -23.317  0.00  0.00    +0.025 A 
ATOM      2  C   UNL     1       1.616   2.082 -24.118  0.00  0.00    +0.164 A 
ATOM      3  C   UNL     1       1.520   2.644 -25.286  0.00  0.00    +0.161 A 
ATOM      4  C   UNL     1       0.397   3.185 -25.654  0.00  0.00    +0.079 A 
ATOM      5  C   UNL     1      -0.627   3.164 -24.856  0.00  0.00    +0.094 A 
ATOM      6  N   UNL     1      -1.750   3.705 -25.225  0.00  0.00    -0.243 NA
ATOM      7  C   UNL     1      -2.776   3.685 -24.427  0.00  0.00    +0.090 A 
ATOM      8  C   UNL     1      -3.898   4.226 -24.797  0.00  0.00    +0.033 A 
ATOM      9  C   UNL     1      -4.924   4.206 -23.999  0.00  0.00    +0.048 A 
ATOM     10  C   UNL     1      -4.827   3.644 -22.831  0.00  0.00    +0.122 A 
ATOM     11  C   UNL     1      -3.705   3.102 -22.460  0.00  0.00    +0.075 A 
ATOM     12  C   UNL     1      -2.678   3.123 -23.260  0.00  0.00    +0.093 A 
ATOM     13  N   UNL     1      -1.557   2.581 -22.889  0.00  0.00    -0.243 NA
ATOM     14  C   UNL     1      -0.531   2.602 -23.687  0.00  0.00    +0.097 A 
ENDROOT
BRANCH   2  15
ATOM     15  O   UNL     1       2.740   1.540 -23.748  0.00  0.00    -0.503 OA
ATOM     16  H   UNL     1       3.007   1.579 -22.851  0.00  0.00    +0.292 HD
ENDBRANCH   2  15
BRANCH   3  17
ATOM     17  O   UNL     1       2.544   2.665 -26.084  0.00  0.00    -0.503 OA
ATOM     18  H   UNL     1       2.475   2.300 -26.944  0.00  0.00    +0.292 HD
ENDBRANCH   3  17
BRANCH  10  19
ATOM     19  O   UNL     1      -5.854   3.624 -22.033  0.00  0.00    -0.495 OA
ATOM     20  C   UNL     1      -6.340   2.489 -21.627  0.00  0.00    +0.277 C 
ENDBRANCH  10  19
BRANCH   1  21
ATOM     21  C   UNL     1       0.689   1.498 -22.150  0.00  0.00    +0.041 C 
BRANCH  21  22
ATOM     22  C   UNL     1       1.527   1.964 -21.271  0.00  0.00    +0.005 C 
BRANCH  22  23
ATOM     23  C   UNL     1       2.200   1.146 -20.516  0.00  0.00    +0.000 C 
BRANCH  23  24
ATOM     24  C   UNL     1       3.443   0.884 -20.790  0.00  0.00    +0.000 C 
BRANCH  24  25
ATOM     25  C   UNL     1       4.352   1.799 -20.630  0.00  0.00    +0.000 C 
BRANCH  25  26
ATOM     26  C   UNL     1       5.327   1.904 -21.483  0.00  0.00    +0.000 C 
BRANCH  26  27
ATOM     27  C   UNL     1       5.743   3.078 -21.853  0.00  0.00    -0.000 C 
BRANCH  27  28
ATOM     28  C   UNL     1       5.507   3.500 -23.059  0.00  0.00    -0.000 C 
BRANCH  28  29
ATOM     29  C   UNL     1       4.925   4.648 -23.245  0.00  0.00    -0.000 C 
BRANCH  29  31
ATOM     30  C   UNL     1       3.095   5.894 -22.837  0.00  0.00    +0.004 C 
ATOM     31  C   UNL     1       3.634   4.748 -23.130  0.00  0.00    -0.003 C 
ENDBRANCH  29  31
ENDBRANCH  28  29
ENDBRANCH  27  28
ENDBRANCH  26  27
ENDBRANCH  25  26
ENDBRANCH  24  25
ENDBRANCH  23  24
ENDBRANCH  22  23
ENDBRANCH  21  22
ENDBRANCH   1  21
TORSDOF 13
ENDMDL
MODEL 9
REMARK VINA RESULT:    -6.143      3.606      6.089
REMARK INTER + INTRA:         -11.874
REMARK INTER:                 -10.453
REMARK INTRA:                  -1.422
REMARK UNBOUND:                -1.422
REMARK  Name = CCCCCCCCCCCc1c(O)c(O)cc2nc3ccc(OC)cc3nc12                            ZINC000103006380
REMARK  15 active torsions:
REMARK  status: ('A' for Active; 'I' for Inactive)
REMARK    1  A    between atoms: C_1  and  C_2
REMARK    2  A    between atoms: C_2  and  C_3
REMARK    3  A    between atoms: C_3  and  C_4
REMARK    4  A    between atoms: C_4  and  C_5
REMARK    5  A    between atoms: C_5  and  C_6
REMARK    6  A    between atoms: C_6  and  C_7
REMARK    7  A    between atoms: C_7  and  C_8
REMARK    8  A    between atoms: C_8  and  C_9
REMARK    9  A    between atoms: C_9  and  C_10
REMARK   10  A    between atoms: C_10  and  C_11
REMARK   11  A    between atoms: C_11  and  C_12
REMARK   12  A    between atoms: C_13  and  O_14
REMARK   13  A    between atoms: C_15  and  O_16
REMARK   14  A    between atoms: C_23  and  O_24
REMARK   15  A    between atoms: O_24  and  C_25
REMARK                            x       y       z     vdW  Elec       q    Type
REMARK                         _______ _______ _______ _____ _____    ______ ____
ROOT
ATOM      1  C   UNL     1       5.591   5.396 -22.281  0.00  0.00    +0.025 A 
ATOM      2  C   UNL     1       6.471   4.576 -21.789  0.00  0.00    +0.164 A 
ATOM      3  C   UNL     1       7.328   4.992 -20.904  0.00  0.00    +0.161 A 
ATOM      4  C   UNL     1       7.304   6.230 -20.511  0.00  0.00    +0.079 A 
ATOM      5  C   UNL     1       6.425   7.051 -21.001  0.00  0.00    +0.094 A 
ATOM      6  N   UNL     1       6.402   8.290 -20.607  0.00  0.00    -0.243 NA
ATOM      7  C   UNL     1       5.523   9.113 -21.096  0.00  0.00    +0.090 A 
ATOM      8  C   UNL     1       5.501  10.350 -20.702  0.00  0.00    +0.033 A 
ATOM      9  C   UNL     1       4.622  11.174 -21.191  0.00  0.00    +0.048 A 
ATOM     10  C   UNL     1       3.765  10.758 -22.076  0.00  0.00    +0.122 A 
ATOM     11  C   UNL     1       3.787   9.519 -22.471  0.00  0.00    +0.075 A 
ATOM     12  C   UNL     1       4.667   8.696 -21.981  0.00  0.00    +0.093 A 
ATOM     13  N   UNL     1       4.689   7.458 -22.376  0.00  0.00    -0.243 NA
ATOM     14  C   UNL     1       5.568   6.636 -21.886  0.00  0.00    +0.097 A 
ENDROOT
BRANCH   2  15
ATOM     15  O   UNL     1       6.494   3.337 -22.184  0.00  0.00    -0.503 OA
ATOM     16  H   UNL     1       5.706   2.924 -22.478  0.00  0.00    +0.292 HD
ENDBRANCH   2  15
BRANCH   3  17
ATOM     17  O   UNL     1       8.207   4.171 -20.414  0.00  0.00    -0.503 OA
ATOM     18  H   UNL     1       8.396   3.368 -20.858  0.00  0.00    +0.292 HD
ENDBRANCH   3  17
BRANCH  10  19
ATOM     19  O   UNL     1       2.886  11.582 -22.566  0.00  0.00    -0.495 OA
ATOM     20  C   UNL     1       3.006  12.011 -23.786  0.00  0.00    +0.277 C 
ENDBRANCH  10  19
BRANCH   1  21
ATOM     21  C   UNL     1       4.734   4.981 -23.165  0.00  0.00    +0.041 C 
BRANCH  21  22
ATOM     22  C   UNL     1       3.502   4.752 -22.819  0.00  0.00    +0.005 C 
BRANCH  22  23
ATOM     23  C   UNL     1       2.922   3.642 -23.172  0.00  0.00    +0.000 C 
BRANCH  23  24
ATOM     24  C   UNL     1       2.197   3.602 -24.250  0.00  0.00    +0.000 C 
BRANCH  24  25
ATOM     25  C   UNL     1       1.332   4.543 -24.488  0.00  0.00    +0.000 C 
BRANCH  25  26
ATOM     26  C   UNL     1       0.071   4.344 -24.247  0.00  0.00    +0.000 C 
BRANCH  26  27
ATOM     27  C   UNL     1      -0.467   4.819 -23.163  0.00  0.00    -0.000 C 
BRANCH  27  28
ATOM     28  C   UNL     1      -1.308   4.097 -22.485  0.00  0.00    -0.000 C 
BRANCH  28  29
ATOM     29  C   UNL     1      -1.172   2.805 -22.444  0.00  0.00    -0.000 C 
BRANCH  29  31
ATOM     30  C   UNL     1       0.353   1.486 -21.442  0.00  0.00    +0.004 C 
ATOM     31  C   UNL     1      -0.707   2.234 -21.372  0.00  0.00    -0.003 C 
ENDBRANCH  29  31
ENDBRANCH  28  29
ENDBRANCH  27  28
ENDBRANCH  26  27
ENDBRANCH  25  26
ENDBRANCH  24  25
ENDBRANCH  23  24
ENDBRANCH  22  23
ENDBRANCH  21  22
ENDBRANCH   1  21
TORSDOF 13
ENDMDL
