MODEL 1
REMARK VINA RESULT:    -8.875      0.000      0.000
REMARK INTER + INTRA:         -12.056
REMARK INTER:                 -11.956
REMARK INTRA:                  -0.100
REMARK UNBOUND:                -0.068
REMARK  Name = ZINC000018269677
REMARK  12 active torsions:
REMARK  status: ('A' for Active; 'I' for Inactive)
REMARK    1  A    between atoms: C_1  and  O_2
REMARK    2  A    between atoms: O_2  and  C_3
REMARK    3  A    between atoms: C_6  and  C_7
REMARK    4  A    between atoms: C_9  and  C_10
REMARK    5  A    between atoms: C_13  and  O_14
REMARK    6  A    between atoms: O_14  and  C_15
REMARK    7  A    between atoms: C_16  and  O_17
REMARK    8  A    between atoms: O_17  and  C_18
REMARK    9  A    between atoms: C_20  and  C_21
REMARK   10  A    between atoms: C_22  and  C_23
REMARK   11  A    between atoms: C_25  and  O_26
REMARK   12  A    between atoms: O_26  and  C_27
REMARK                            x       y       z     vdW  Elec       q    Type
REMARK                         _______ _______ _______ _____ _____    ______ ____
ROOT
ATOM      1  C   UNL     1       1.244   3.216 -23.432  0.00  0.00    +0.152 C 
ATOM      2  O   UNL     1       0.213   3.224 -22.642  0.00  0.00    -0.364 OA
ATOM      3  C   UNL     1      -0.856   3.316 -23.378  0.00  0.00    +0.152 C 
ATOM      4  C   UNL     1      -0.483   3.365 -24.623  0.00  0.00    +0.025 C 
ATOM      5  C   UNL     1      -1.271   3.459 -25.652  0.00  0.00    +0.011 C 
ATOM      6  C   UNL     1       0.815   3.304 -24.657  0.00  0.00    +0.025 C 
ATOM      7  C   UNL     1       1.553   3.326 -25.726  0.00  0.00    +0.011 C 
ENDROOT
BRANCH   3   8
ATOM      8  C   UNL     1      -2.081   3.352 -22.945  0.00  0.00    -0.015 A 
ATOM      9  C   UNL     1      -2.347   3.011 -21.718  0.00  0.00    +0.010 A 
ATOM     10  C   UNL     1      -3.573   3.047 -21.286  0.00  0.00    +0.050 A 
ATOM     11  C   UNL     1      -4.531   3.424 -22.078  0.00  0.00    +0.162 A 
ATOM     12  C   UNL     1      -4.265   3.765 -23.304  0.00  0.00    +0.162 A 
ATOM     13  C   UNL     1      -3.040   3.729 -23.737  0.00  0.00    +0.055 A 
BRANCH  12  14
ATOM     14  O   UNL     1      -5.224   4.142 -24.097  0.00  0.00    -0.491 OA
ATOM     15  C   UNL     1      -5.224   3.765 -25.341  0.00  0.00    +0.277 C 
ENDBRANCH  12  14
BRANCH  11  16
ATOM     16  O   UNL     1      -5.756   3.461 -21.645  0.00  0.00    -0.491 OA
ATOM     17  C   UNL     1      -6.430   2.357 -21.506  0.00  0.00    +0.277 C 
ENDBRANCH  11  16
ENDBRANCH   3   8
BRANCH   1  21
ATOM     18  C   UNL     1       4.977   2.975 -22.325  0.00  0.00    +0.162 A 
ATOM     19  C   UNL     1       4.494   4.108 -22.742  0.00  0.00    +0.050 A 
ATOM     20  C   UNL     1       3.250   4.189 -23.111  0.00  0.00    +0.010 A 
ATOM     21  C   UNL     1       2.489   3.136 -23.063  0.00  0.00    -0.015 A 
ATOM     22  C   UNL     1       2.971   2.003 -22.647  0.00  0.00    +0.055 A 
ATOM     23  C   UNL     1       4.215   1.922 -22.278  0.00  0.00    +0.162 A 
BRANCH  18  25
ATOM     24  C   UNL     1       6.709   3.764 -21.121  0.00  0.00    +0.277 C 
ATOM     25  O   UNL     1       6.221   2.895 -21.956  0.00  0.00    -0.491 OA
ENDBRANCH  18  25
BRANCH  23  26
ATOM     26  O   UNL     1       4.698   0.789 -21.862  0.00  0.00    -0.491 OA
ATOM     27  C   UNL     1       4.291   0.284 -20.735  0.00  0.00    +0.277 C 
ENDBRANCH  23  26
ENDBRANCH   1  21
TORSDOF 6
ENDMDL
MODEL 2
REMARK VINA RESULT:    -8.874      0.084      8.175
REMARK INTER + INTRA:         -12.055
REMARK INTER:                 -12.003
REMARK INTRA:                  -0.052
REMARK UNBOUND:                -0.068
REMARK  Name = ZINC000018269677
REMARK  12 active torsions:
REMARK  status: ('A' for Active; 'I' for Inactive)
REMARK    1  A    between atoms: C_1  and  O_2
REMARK    2  A    between atoms: O_2  and  C_3
REMARK    3  A    between atoms: C_6  and  C_7
REMARK    4  A    between atoms: C_9  and  C_10
REMARK    5  A    between atoms: C_13  and  O_14
REMARK    6  A    between atoms: O_14  and  C_15
REMARK    7  A    between atoms: C_16  and  O_17
REMARK    8  A    between atoms: O_17  and  C_18
REMARK    9  A    between atoms: C_20  and  C_21
REMARK   10  A    between atoms: C_22  and  C_23
REMARK   11  A    between atoms: C_25  and  O_26
REMARK   12  A    between atoms: O_26  and  C_27
REMARK                            x       y       z     vdW  Elec       q    Type
REMARK                         _______ _______ _______ _____ _____    ______ ____
ROOT
ATOM      1  C   UNL     1      -0.815   3.278 -23.321  0.00  0.00    +0.152 C 
ATOM      2  O   UNL     1       0.260   3.204 -22.595  0.00  0.00    -0.364 OA
ATOM      3  C   UNL     1       1.284   3.182 -23.395  0.00  0.00    +0.152 C 
ATOM      4  C   UNL     1       0.842   3.242 -24.617  0.00  0.00    +0.025 C 
ATOM      5  C   UNL     1       1.569   3.243 -25.693  0.00  0.00    +0.011 C 
ATOM      6  C   UNL     1      -0.456   3.302 -24.571  0.00  0.00    +0.025 C 
ATOM      7  C   UNL     1      -1.253   3.373 -25.594  0.00  0.00    +0.011 C 
ENDROOT
BRANCH   3   8
ATOM      8  C   UNL     1       2.532   3.112 -23.037  0.00  0.00    -0.015 A 
ATOM      9  C   UNL     1       3.296   4.160 -23.132  0.00  0.00    +0.010 A 
ATOM     10  C   UNL     1       4.544   4.089 -22.774  0.00  0.00    +0.050 A 
ATOM     11  C   UNL     1       5.028   2.971 -22.322  0.00  0.00    +0.162 A 
ATOM     12  C   UNL     1       4.265   1.923 -22.227  0.00  0.00    +0.162 A 
ATOM     13  C   UNL     1       3.017   1.994 -22.585  0.00  0.00    +0.055 A 
BRANCH  12  14
ATOM     14  O   UNL     1       4.749   0.805 -21.774  0.00  0.00    -0.491 OA
ATOM     15  C   UNL     1       4.262   0.277 -20.690  0.00  0.00    +0.277 C 
ENDBRANCH  12  14
BRANCH  11  16
ATOM     16  O   UNL     1       6.275   2.901 -21.964  0.00  0.00    -0.491 OA
ATOM     17  C   UNL     1       6.770   3.788 -21.152  0.00  0.00    +0.277 C 
ENDBRANCH  11  16
ENDBRANCH   3   8
BRANCH   1  21
ATOM     18  C   UNL     1      -4.478   3.407 -21.987  0.00  0.00    +0.162 A 
ATOM     19  C   UNL     1      -3.510   3.048 -21.196  0.00  0.00    +0.050 A 
ATOM     20  C   UNL     1      -2.289   3.005 -21.641  0.00  0.00    +0.010 A 
ATOM     21  C   UNL     1      -2.036   3.321 -22.877  0.00  0.00    -0.015 A 
ATOM     22  C   UNL     1      -3.004   3.681 -23.667  0.00  0.00    +0.055 A 
ATOM     23  C   UNL     1      -4.225   3.724 -23.223  0.00  0.00    +0.162 A 
BRANCH  18  25
ATOM     24  C   UNL     1      -6.420   2.368 -21.517  0.00  0.00    +0.277 C 
ATOM     25  O   UNL     1      -5.699   3.450 -21.542  0.00  0.00    -0.491 OA
ENDBRANCH  18  25
BRANCH  23  26
ATOM     26  O   UNL     1      -5.192   4.083 -24.013  0.00  0.00    -0.491 OA
ATOM     27  C   UNL     1      -5.148   3.776 -25.275  0.00  0.00    +0.277 C 
ENDBRANCH  23  26
ENDBRANCH   1  21
TORSDOF 6
ENDMDL
MODEL 3
REMARK VINA RESULT:    -8.606      1.806      8.343
REMARK INTER + INTRA:         -11.693
REMARK INTER:                 -11.111
REMARK INTRA:                  -0.582
REMARK UNBOUND:                -0.068
REMARK  Name = ZINC000018269677
REMARK  12 active torsions:
REMARK  status: ('A' for Active; 'I' for Inactive)
REMARK    1  A    between atoms: C_1  and  O_2
REMARK    2  A    between atoms: O_2  and  C_3
REMARK    3  A    between atoms: C_6  and  C_7
REMARK    4  A    between atoms: C_9  and  C_10
REMARK    5  A    between atoms: C_13  and  O_14
REMARK    6  A    between atoms: O_14  and  C_15
REMARK    7  A    between atoms: C_16  and  O_17
REMARK    8  A    between atoms: O_17  and  C_18
REMARK    9  A    between atoms: C_20  and  C_21
REMARK   10  A    between atoms: C_22  and  C_23
REMARK   11  A    between atoms: C_25  and  O_26
REMARK   12  A    between atoms: O_26  and  C_27
REMARK                            x       y       z     vdW  Elec       q    Type
REMARK                         _______ _______ _______ _____ _____    ______ ____
ROOT
ATOM      1  C   UNL     1       0.626   3.111 -23.029  0.00  0.00    +0.152 C 
ATOM      2  O   UNL     1       1.650   3.818 -23.402  0.00  0.00    -0.364 OA
ATOM      3  C   UNL     1       2.718   3.278 -22.893  0.00  0.00    +0.152 C 
ATOM      4  C   UNL     1       2.353   2.236 -22.206  0.00  0.00    +0.025 C 
ATOM      5  C   UNL     1       3.142   1.439 -21.550  0.00  0.00    +0.011 C 
ATOM      6  C   UNL     1       1.060   2.133 -22.290  0.00  0.00    +0.025 C 
ATOM      7  C   UNL     1       0.330   1.214 -21.732  0.00  0.00    +0.011 C 
ENDROOT
BRANCH   3   8
ATOM      8  C   UNL     1       3.937   3.705 -23.045  0.00  0.00    -0.015 A 
ATOM      9  C   UNL     1       4.822   2.951 -23.627  0.00  0.00    +0.010 A 
ATOM     10  C   UNL     1       6.040   3.379 -23.779  0.00  0.00    +0.050 A 
ATOM     11  C   UNL     1       6.374   4.558 -23.349  0.00  0.00    +0.162 A 
ATOM     12  C   UNL     1       5.489   5.312 -22.767  0.00  0.00    +0.162 A 
ATOM     13  C   UNL     1       4.271   4.885 -22.615  0.00  0.00    +0.055 A 
BRANCH  12  14
ATOM     14  O   UNL     1       5.823   6.492 -22.336  0.00  0.00    -0.491 OA
ATOM     15  C   UNL     1       4.914   7.293 -21.863  0.00  0.00    +0.277 C 
ENDBRANCH  12  14
BRANCH  11  16
ATOM     16  O   UNL     1       7.592   4.985 -23.501  0.00  0.00    -0.491 OA
ATOM     17  C   UNL     1       8.172   4.896 -24.661  0.00  0.00    +0.277 C 
ENDBRANCH  11  16
ENDBRANCH   3   8
BRANCH   1  21
ATOM     18  C   UNL     1      -3.098   3.798 -23.965  0.00  0.00    +0.162 A 
ATOM     19  C   UNL     1      -2.208   3.655 -24.901  0.00  0.00    +0.050 A 
ATOM     20  C   UNL     1      -0.966   3.426 -24.590  0.00  0.00    +0.010 A 
ATOM     21  C   UNL     1      -0.615   3.340 -23.341  0.00  0.00    -0.015 A 
ATOM     22  C   UNL     1      -1.505   3.483 -22.404  0.00  0.00    +0.055 A 
ATOM     23  C   UNL     1      -2.746   3.712 -22.715  0.00  0.00    +0.162 A 
BRANCH  18  25
ATOM     24  C   UNL     1      -4.812   3.607 -25.412  0.00  0.00    +0.277 C 
ATOM     25  O   UNL     1      -4.339   4.028 -24.276  0.00  0.00    -0.491 OA
ENDBRANCH  18  25
BRANCH  23  26
ATOM     26  O   UNL     1      -3.636   3.855 -21.778  0.00  0.00    -0.491 OA
ATOM     27  C   UNL     1      -3.268   3.886 -20.532  0.00  0.00    +0.277 C 
ENDBRANCH  23  26
ENDBRANCH   1  21
TORSDOF 6
ENDMDL
MODEL 4
REMARK VINA RESULT:    -8.601      1.244      8.179
REMARK INTER + INTRA:         -11.686
REMARK INTER:                 -11.758
REMARK INTRA:                   0.073
REMARK UNBOUND:                -0.068
REMARK  Name = ZINC000018269677
REMARK  12 active torsions:
REMARK  status: ('A' for Active; 'I' for Inactive)
REMARK    1  A    between atoms: C_1  and  O_2
REMARK    2  A    between atoms: O_2  and  C_3
REMARK    3  A    between atoms: C_6  and  C_7
REMARK    4  A    between atoms: C_9  and  C_10
REMARK    5  A    between atoms: C_13  and  O_14
REMARK    6  A    between atoms: O_14  and  C_15
REMARK    7  A    between atoms: C_16  and  O_17
REMARK    8  A    between atoms: O_17  and  C_18
REMARK    9  A    between atoms: C_20  and  C_21
REMARK   10  A    between atoms: C_22  and  C_23
REMARK   11  A    between atoms: C_25  and  O_26
REMARK   12  A    between atoms: O_26  and  C_27
REMARK                            x       y       z     vdW  Elec       q    Type
REMARK                         _______ _______ _______ _____ _____    ______ ____
ROOT
ATOM      1  C   UNL     1      -1.021   3.507 -22.752  0.00  0.00    +0.152 C 
ATOM      2  O   UNL     1      -0.194   2.570 -22.398  0.00  0.00    -0.364 OA
ATOM      3  C   UNL     1       1.012   2.980 -22.658  0.00  0.00    +0.152 C 
ATOM      4  C   UNL     1       0.930   4.171 -23.173  0.00  0.00    +0.025 C 
ATOM      5  C   UNL     1       1.928   4.906 -23.561  0.00  0.00    +0.011 C 
ATOM      6  C   UNL     1      -0.327   4.497 -23.231  0.00  0.00    +0.025 C 
ATOM      7  C   UNL     1      -0.805   5.616 -23.688  0.00  0.00    +0.011 C 
ENDROOT
BRANCH   3   8
ATOM      8  C   UNL     1       2.108   2.315 -22.441  0.00  0.00    -0.015 A 
ATOM      9  C   UNL     1       2.061   1.033 -22.234  0.00  0.00    +0.010 A 
ATOM     10  C   UNL     1       3.158   0.369 -22.017  0.00  0.00    +0.050 A 
ATOM     11  C   UNL     1       4.301   0.986 -22.008  0.00  0.00    +0.162 A 
ATOM     12  C   UNL     1       4.349   2.269 -22.215  0.00  0.00    +0.162 A 
ATOM     13  C   UNL     1       3.252   2.933 -22.432  0.00  0.00    +0.055 A 
BRANCH  12  14
ATOM     14  O   UNL     1       5.492   2.887 -22.206  0.00  0.00    -0.491 OA
ATOM     15  C   UNL     1       5.854   3.599 -23.232  0.00  0.00    +0.277 C 
ENDBRANCH  12  14
BRANCH  11  16
ATOM     16  O   UNL     1       5.397   0.322 -21.791  0.00  0.00    -0.491 OA
ATOM     17  C   UNL     1       5.587  -0.263 -20.646  0.00  0.00    +0.277 C 
ENDBRANCH  11  16
ENDBRANCH   3   8
BRANCH   1  21
ATOM     18  C   UNL     1      -4.906   3.376 -22.433  0.00  0.00    +0.162 A 
ATOM     19  C   UNL     1      -4.163   3.256 -21.373  0.00  0.00    +0.050 A 
ATOM     20  C   UNL     1      -2.867   3.300 -21.479  0.00  0.00    +0.010 A 
ATOM     21  C   UNL     1      -2.316   3.464 -22.646  0.00  0.00    -0.015 A 
ATOM     22  C   UNL     1      -3.060   3.583 -23.705  0.00  0.00    +0.055 A 
ATOM     23  C   UNL     1      -4.355   3.540 -23.600  0.00  0.00    +0.162 A 
BRANCH  18  25
ATOM     24  C   UNL     1      -6.762   2.430 -21.576  0.00  0.00    +0.277 C 
ATOM     25  O   UNL     1      -6.202   3.332 -22.326  0.00  0.00    -0.491 OA
ENDBRANCH  18  25
BRANCH  23  26
ATOM     26  O   UNL     1      -5.099   3.659 -24.659  0.00  0.00    -0.491 OA
ATOM     27  C   UNL     1      -4.635   3.307 -25.821  0.00  0.00    +0.277 C 
ENDBRANCH  23  26
ENDBRANCH   1  21
TORSDOF 6
ENDMDL
MODEL 5
REMARK VINA RESULT:    -8.590      1.710      3.281
REMARK INTER + INTRA:         -11.671
REMARK INTER:                 -11.184
REMARK INTRA:                  -0.487
REMARK UNBOUND:                -0.068
REMARK  Name = ZINC000018269677
REMARK  12 active torsions:
REMARK  status: ('A' for Active; 'I' for Inactive)
REMARK    1  A    between atoms: C_1  and  O_2
REMARK    2  A    between atoms: O_2  and  C_3
REMARK    3  A    between atoms: C_6  and  C_7
REMARK    4  A    between atoms: C_9  and  C_10
REMARK    5  A    between atoms: C_13  and  O_14
REMARK    6  A    between atoms: O_14  and  C_15
REMARK    7  A    between atoms: C_16  and  O_17
REMARK    8  A    between atoms: O_17  and  C_18
REMARK    9  A    between atoms: C_20  and  C_21
REMARK   10  A    between atoms: C_22  and  C_23
REMARK   11  A    between atoms: C_25  and  O_26
REMARK   12  A    between atoms: O_26  and  C_27
REMARK                            x       y       z     vdW  Elec       q    Type
REMARK                         _______ _______ _______ _____ _____    ______ ____
ROOT
ATOM      1  C   UNL     1       2.233   3.187 -22.893  0.00  0.00    +0.152 C 
ATOM      2  O   UNL     1       1.185   3.679 -23.483  0.00  0.00    -0.364 OA
ATOM      3  C   UNL     1       0.152   2.979 -23.118  0.00  0.00    +0.152 C 
ATOM      4  C   UNL     1       0.562   2.054 -22.301  0.00  0.00    +0.025 C 
ATOM      5  C   UNL     1      -0.183   1.158 -21.726  0.00  0.00    +0.011 C 
ATOM      6  C   UNL     1       1.848   2.183 -22.162  0.00  0.00    +0.025 C 
ATOM      7  C   UNL     1       2.614   1.438 -21.422  0.00  0.00    +0.011 C 
ENDROOT
BRANCH   3   8
ATOM      8  C   UNL     1      -1.075   3.170 -23.503  0.00  0.00    -0.015 A 
ATOM      9  C   UNL     1      -1.340   3.359 -24.761  0.00  0.00    +0.010 A 
ATOM     10  C   UNL     1      -2.568   3.550 -25.145  0.00  0.00    +0.050 A 
ATOM     11  C   UNL     1      -3.529   3.551 -24.271  0.00  0.00    +0.162 A 
ATOM     12  C   UNL     1      -3.264   3.362 -23.013  0.00  0.00    +0.162 A 
ATOM     13  C   UNL     1      -2.037   3.171 -22.629  0.00  0.00    +0.055 A 
BRANCH  12  14
ATOM     14  O   UNL     1      -4.226   3.364 -22.138  0.00  0.00    -0.491 OA
ATOM     15  C   UNL     1      -4.142   2.617 -21.077  0.00  0.00    +0.277 C 
ENDBRANCH  12  14
BRANCH  11  16
ATOM     16  O   UNL     1      -4.756   3.742 -24.655  0.00  0.00    -0.491 OA
ATOM     17  C   UNL     1      -5.150   3.306 -25.815  0.00  0.00    +0.277 C 
ENDBRANCH  11  16
ENDBRANCH   3   8
BRANCH   1  21
ATOM     18  C   UNL     1       5.890   4.494 -23.248  0.00  0.00    +0.162 A 
ATOM     19  C   UNL     1       5.572   3.320 -23.707  0.00  0.00    +0.050 A 
ATOM     20  C   UNL     1       4.353   2.885 -23.589  0.00  0.00    +0.010 A 
ATOM     21  C   UNL     1       3.452   3.623 -23.011  0.00  0.00    -0.015 A 
ATOM     22  C   UNL     1       3.770   4.797 -22.552  0.00  0.00    +0.055 A 
ATOM     23  C   UNL     1       4.989   5.233 -22.670  0.00  0.00    +0.162 A 
BRANCH  18  25
ATOM     24  C   UNL     1       8.065   4.108 -23.687  0.00  0.00    +0.277 C 
ATOM     25  O   UNL     1       7.110   4.930 -23.367  0.00  0.00    -0.491 OA
ENDBRANCH  18  25
BRANCH  23  26
ATOM     26  O   UNL     1       5.308   6.407 -22.211  0.00  0.00    -0.491 OA
ATOM     27  C   UNL     1       4.384   7.300 -22.015  0.00  0.00    +0.277 C 
ENDBRANCH  23  26
ENDBRANCH   1  21
TORSDOF 6
ENDMDL
MODEL 6
REMARK VINA RESULT:    -7.897      2.797      8.129
REMARK INTER + INTRA:         -10.736
REMARK INTER:                 -10.587
REMARK INTRA:                  -0.149
REMARK UNBOUND:                -0.068
REMARK  Name = ZINC000018269677
REMARK  12 active torsions:
REMARK  status: ('A' for Active; 'I' for Inactive)
REMARK    1  A    between atoms: C_1  and  O_2
REMARK    2  A    between atoms: O_2  and  C_3
REMARK    3  A    between atoms: C_6  and  C_7
REMARK    4  A    between atoms: C_9  and  C_10
REMARK    5  A    between atoms: C_13  and  O_14
REMARK    6  A    between atoms: O_14  and  C_15
REMARK    7  A    between atoms: C_16  and  O_17
REMARK    8  A    between atoms: O_17  and  C_18
REMARK    9  A    between atoms: C_20  and  C_21
REMARK   10  A    between atoms: C_22  and  C_23
REMARK   11  A    between atoms: C_25  and  O_26
REMARK   12  A    between atoms: O_26  and  C_27
REMARK                            x       y       z     vdW  Elec       q    Type
REMARK                         _______ _______ _______ _____ _____    ______ ____
ROOT
ATOM      1  C   UNL     1       1.825   3.839 -23.630  0.00  0.00    +0.152 C 
ATOM      2  O   UNL     1       2.299   4.940 -23.128  0.00  0.00    -0.364 OA
ATOM      3  C   UNL     1       3.592   4.826 -23.057  0.00  0.00    +0.152 C 
ATOM      4  C   UNL     1       3.917   3.653 -23.516  0.00  0.00    +0.025 C 
ATOM      5  C   UNL     1       5.122   3.175 -23.605  0.00  0.00    +0.011 C 
ATOM      6  C   UNL     1       2.825   3.043 -23.870  0.00  0.00    +0.025 C 
ATOM      7  C   UNL     1       2.747   1.849 -24.375  0.00  0.00    +0.011 C 
ENDROOT
BRANCH   3   8
ATOM      8  C   UNL     1       4.415   5.725 -22.607  0.00  0.00    -0.015 A 
ATOM      9  C   UNL     1       5.679   5.446 -22.482  0.00  0.00    +0.010 A 
ATOM     10  C   UNL     1       6.502   6.347 -22.032  0.00  0.00    +0.050 A 
ATOM     11  C   UNL     1       6.062   7.525 -21.707  0.00  0.00    +0.162 A 
ATOM     12  C   UNL     1       4.799   7.805 -21.832  0.00  0.00    +0.162 A 
ATOM     13  C   UNL     1       3.976   6.905 -22.282  0.00  0.00    +0.055 A 
BRANCH  12  14
ATOM     14  O   UNL     1       4.358   8.984 -21.507  0.00  0.00    -0.491 OA
ATOM     15  C   UNL     1       3.917   9.789 -22.427  0.00  0.00    +0.277 C 
ENDBRANCH  12  14
BRANCH  11  16
ATOM     16  O   UNL     1       6.885   8.424 -21.257  0.00  0.00    -0.491 OA
ATOM     17  C   UNL     1       7.957   8.063 -20.616  0.00  0.00    +0.277 C 
ENDBRANCH  11  16
ENDBRANCH   3   8
BRANCH   1  21
ATOM     18  C   UNL     1      -1.938   3.058 -24.299  0.00  0.00    +0.162 A 
ATOM     19  C   UNL     1      -1.204   3.576 -25.239  0.00  0.00    +0.050 A 
ATOM     20  C   UNL     1       0.050   3.837 -25.016  0.00  0.00    +0.010 A 
ATOM     21  C   UNL     1       0.571   3.579 -23.853  0.00  0.00    -0.015 A 
ATOM     22  C   UNL     1      -0.163   3.061 -22.913  0.00  0.00    +0.055 A 
ATOM     23  C   UNL     1      -1.417   2.800 -23.135  0.00  0.00    +0.162 A 
BRANCH  18  25
ATOM     24  C   UNL     1      -4.028   3.769 -24.744  0.00  0.00    +0.277 C 
ATOM     25  O   UNL     1      -3.192   2.798 -24.522  0.00  0.00    -0.491 OA
ENDBRANCH  18  25
BRANCH  23  26
ATOM     26  O   UNL     1      -2.150   2.282 -22.195  0.00  0.00    -0.491 OA
ATOM     27  C   UNL     1      -2.482   2.996 -21.162  0.00  0.00    +0.277 C 
ENDBRANCH  23  26
ENDBRANCH   1  21
TORSDOF 6
ENDMDL
MODEL 7
REMARK VINA RESULT:    -7.874      1.354      8.407
REMARK INTER + INTRA:         -10.704
REMARK INTER:                 -10.785
REMARK INTRA:                   0.082
REMARK UNBOUND:                -0.068
REMARK  Name = ZINC000018269677
REMARK  12 active torsions:
REMARK  status: ('A' for Active; 'I' for Inactive)
REMARK    1  A    between atoms: C_1  and  O_2
REMARK    2  A    between atoms: O_2  and  C_3
REMARK    3  A    between atoms: C_6  and  C_7
REMARK    4  A    between atoms: C_9  and  C_10
REMARK    5  A    between atoms: C_13  and  O_14
REMARK    6  A    between atoms: O_14  and  C_15
REMARK    7  A    between atoms: C_16  and  O_17
REMARK    8  A    between atoms: O_17  and  C_18
REMARK    9  A    between atoms: C_20  and  C_21
REMARK   10  A    between atoms: C_22  and  C_23
REMARK   11  A    between atoms: C_25  and  O_26
REMARK   12  A    between atoms: O_26  and  C_27
REMARK                            x       y       z     vdW  Elec       q    Type
REMARK                         _______ _______ _______ _____ _____    ______ ____
ROOT
ATOM      1  C   UNL     1      -0.174   3.041 -23.152  0.00  0.00    +0.152 C 
ATOM      2  O   UNL     1       0.936   3.656 -23.434  0.00  0.00    -0.364 OA
ATOM      3  C   UNL     1       1.892   3.086 -22.762  0.00  0.00    +0.152 C 
ATOM      4  C   UNL     1       1.373   2.119 -22.065  0.00  0.00    +0.025 C 
ATOM      5  C   UNL     1       2.017   1.321 -21.268  0.00  0.00    +0.011 C 
ATOM      6  C   UNL     1       0.095   2.091 -22.306  0.00  0.00    +0.025 C 
ATOM      7  C   UNL     1      -0.761   1.260 -21.791  0.00  0.00    +0.011 C 
ENDROOT
BRANCH   3   8
ATOM      8  C   UNL     1       3.147   3.424 -22.784  0.00  0.00    -0.015 A 
ATOM      9  C   UNL     1       3.485   4.657 -23.022  0.00  0.00    +0.010 A 
ATOM     10  C   UNL     1       4.741   4.994 -23.044  0.00  0.00    +0.050 A 
ATOM     11  C   UNL     1       5.657   4.099 -22.827  0.00  0.00    +0.162 A 
ATOM     12  C   UNL     1       5.320   2.867 -22.588  0.00  0.00    +0.162 A 
ATOM     13  C   UNL     1       4.065   2.529 -22.567  0.00  0.00    +0.055 A 
BRANCH  12  14
ATOM     14  O   UNL     1       6.238   1.972 -22.371  0.00  0.00    -0.491 OA
ATOM     15  C   UNL     1       5.900   0.766 -22.020  0.00  0.00    +0.277 C 
ENDBRANCH  12  14
BRANCH  11  16
ATOM     16  O   UNL     1       6.913   4.437 -22.849  0.00  0.00    -0.491 OA
ATOM     17  C   UNL     1       7.492   4.715 -23.979  0.00  0.00    +0.277 C 
ENDBRANCH  11  16
ENDBRANCH   3   8
BRANCH   1  21
ATOM     18  C   UNL     1      -3.697   3.896 -24.592  0.00  0.00    +0.162 A 
ATOM     19  C   UNL     1      -2.693   3.712 -25.397  0.00  0.00    +0.050 A 
ATOM     20  C   UNL     1      -1.518   3.427 -24.917  0.00  0.00    +0.010 A 
ATOM     21  C   UNL     1      -1.348   3.326 -23.632  0.00  0.00    -0.015 A 
ATOM     22  C   UNL     1      -2.352   3.511 -22.827  0.00  0.00    +0.055 A 
ATOM     23  C   UNL     1      -3.527   3.796 -23.306  0.00  0.00    +0.162 A 
BRANCH  18  25
ATOM     24  C   UNL     1      -5.518   3.298 -25.774  0.00  0.00    +0.277 C 
ATOM     25  O   UNL     1      -4.871   4.181 -25.072  0.00  0.00    -0.491 OA
ENDBRANCH  18  25
BRANCH  23  26
ATOM     26  O   UNL     1      -4.531   3.980 -22.501  0.00  0.00    -0.491 OA
ATOM     27  C   UNL     1      -5.036   2.974 -21.851  0.00  0.00    +0.277 C 
ENDBRANCH  23  26
ENDBRANCH   1  21
TORSDOF 6
ENDMDL
MODEL 8
REMARK VINA RESULT:    -7.602      3.154      5.239
REMARK INTER + INTRA:         -10.336
REMARK INTER:                 -10.268
REMARK INTRA:                  -0.068
REMARK UNBOUND:                -0.068
REMARK  Name = ZINC000018269677
REMARK  12 active torsions:
REMARK  status: ('A' for Active; 'I' for Inactive)
REMARK    1  A    between atoms: C_1  and  O_2
REMARK    2  A    between atoms: O_2  and  C_3
REMARK    3  A    between atoms: C_6  and  C_7
REMARK    4  A    between atoms: C_9  and  C_10
REMARK    5  A    between atoms: C_13  and  O_14
REMARK    6  A    between atoms: O_14  and  C_15
REMARK    7  A    between atoms: C_16  and  O_17
REMARK    8  A    between atoms: O_17  and  C_18
REMARK    9  A    between atoms: C_20  and  C_21
REMARK   10  A    between atoms: C_22  and  C_23
REMARK   11  A    between atoms: C_25  and  O_26
REMARK   12  A    between atoms: O_26  and  C_27
REMARK                            x       y       z     vdW  Elec       q    Type
REMARK                         _______ _______ _______ _____ _____    ______ ____
ROOT
ATOM      1  C   UNL     1       4.249   5.249 -22.781  0.00  0.00    +0.152 C 
ATOM      2  O   UNL     1       2.959   5.255 -22.935  0.00  0.00    -0.364 OA
ATOM      3  C   UNL     1       2.612   4.118 -23.461  0.00  0.00    +0.152 C 
ATOM      4  C   UNL     1       3.688   3.409 -23.632  0.00  0.00    +0.025 C 
ATOM      5  C   UNL     1       3.742   2.212 -24.135  0.00  0.00    +0.011 C 
ATOM      6  C   UNL     1       4.701   4.108 -23.212  0.00  0.00    +0.025 C 
ATOM      7  C   UNL     1       5.944   3.731 -23.221  0.00  0.00    +0.011 C 
ENDROOT
BRANCH   3   8
ATOM      8  C   UNL     1       1.401   3.755 -23.763  0.00  0.00    -0.015 A 
ATOM      9  C   UNL     1       0.862   4.150 -24.879  0.00  0.00    +0.010 A 
ATOM     10  C   UNL     1      -0.349   3.786 -25.180  0.00  0.00    +0.050 A 
ATOM     11  C   UNL     1      -1.021   3.027 -24.368  0.00  0.00    +0.162 A 
ATOM     12  C   UNL     1      -0.483   2.632 -23.253  0.00  0.00    +0.162 A 
ATOM     13  C   UNL     1       0.728   2.995 -22.951  0.00  0.00    +0.055 A 
BRANCH  12  14
ATOM     14  O   UNL     1      -1.155   1.872 -22.439  0.00  0.00    -0.491 OA
ATOM     15  C   UNL     1      -1.804   2.400 -21.443  0.00  0.00    +0.277 C 
ENDBRANCH  12  14
BRANCH  11  16
ATOM     16  O   UNL     1      -2.232   2.663 -24.670  0.00  0.00    -0.491 OA
ATOM     17  C   UNL     1      -2.884   3.287 -25.606  0.00  0.00    +0.277 C 
ENDBRANCH  11  16
ENDBRANCH   3   8
BRANCH   1  21
ATOM     18  C   UNL     1       6.395   8.144 -21.288  0.00  0.00    +0.162 A 
ATOM     19  C   UNL     1       6.931   6.979 -21.497  0.00  0.00    +0.050 A 
ATOM     20  C   UNL     1       6.216   6.013 -21.995  0.00  0.00    +0.010 A 
ATOM     21  C   UNL     1       4.965   6.214 -22.283  0.00  0.00    -0.015 A 
ATOM     22  C   UNL     1       4.428   7.379 -22.075  0.00  0.00    +0.055 A 
ATOM     23  C   UNL     1       5.142   8.345 -21.577  0.00  0.00    +0.162 A 
BRANCH  18  25
ATOM     24  C   UNL     1       8.347   9.259 -21.161  0.00  0.00    +0.277 C 
ATOM     25  O   UNL     1       7.110   9.109 -20.791  0.00  0.00    -0.491 OA
ENDBRANCH  18  25
BRANCH  23  26
ATOM     26  O   UNL     1       4.606   9.510 -21.368  0.00  0.00    -0.491 OA
ATOM     27  C   UNL     1       3.864  10.057 -22.284  0.00  0.00    +0.277 C 
ENDBRANCH  23  26
ENDBRANCH   1  21
TORSDOF 6
ENDMDL
