MODEL 1
REMARK VINA RESULT:    -9.385      0.000      0.000
REMARK INTER + INTRA:          -9.659
REMARK INTER:                  -9.659
REMARK INTRA:                   0.000
REMARK UNBOUND:                 0.000
REMARK  Name = ZINC000004104725
REMARK  4 active torsions:
REMARK  status: ('A' for Active; 'I' for Inactive)
REMARK    1  A    between atoms: C_1  and  C_2
REMARK    2  A    between atoms: C_2  and  C_3
REMARK    3  A    between atoms: C_12  and  C_13
REMARK    4  A    between atoms: C_12  and  O_14
REMARK                            x       y       z     vdW  Elec       q    Type
REMARK                         _______ _______ _______ _____ _____    ______ ____
ROOT
ATOM      1  C   UNL     1      -5.460   3.326 -22.157  0.00  0.00    +0.011 C 
ATOM      2  C   UNL     1      -4.301   2.891 -21.762  0.00  0.00    -0.028 C 
ATOM      3  C   UNL     1      -3.044   2.562 -21.795  0.00  0.00    -0.001 C 
ATOM      4  C   UNL     1      -1.811   2.181 -21.641  0.00  0.00    +0.012 C 
ATOM      5  C   UNL     1      -0.846   2.189 -22.512  0.00  0.00    +0.075 C 
ATOM      6  C   UNL     1      -0.875   2.579 -23.752  0.00  0.00    +0.137 C 
ATOM      7  C   UNL     1      -1.877   3.058 -24.427  0.00  0.00    +0.061 C 
ATOM      8  C   UNL     1      -1.795   3.420 -25.672  0.00  0.00    +0.014 C 
ATOM      9  C   UNL     1      -2.964   3.851 -26.044  0.00  0.00    +0.035 C 
ATOM     10  C   UNL     1      -3.770   3.755 -25.028  0.00  0.00    +0.067 C 
ATOM     11  C   UNL     1      -4.758   3.762 -24.185  0.00  0.00    +0.041 C 
ATOM     12  C   UNL     1      -3.098   3.266 -24.029  0.00  0.00    +0.034 C 
ATOM     13  O   UNL     1       0.246   2.477 -24.402  0.00  0.00    -0.297 OA
ATOM     14  C   UNL     1      -4.582   2.587 -20.530  0.00  0.00    +0.011 C 
ATOM     15  C   UNL     1      -3.617   3.045 -22.858  0.00  0.00    +0.005 C 
ENDROOT
BRANCH  10  16
ATOM     16  O   UNL     1      -4.647   4.247 -25.852  0.00  0.00    -0.389 OA
ATOM     17  H   UNL     1      -5.355   4.680 -25.349  0.00  0.00    +0.210 HD
ENDBRANCH  10  16
TORSDOF 1
ENDMDL
MODEL 2
REMARK VINA RESULT:    -9.166      1.491      3.490
REMARK INTER + INTRA:          -9.434
REMARK INTER:                  -9.434
REMARK INTRA:                   0.000
REMARK UNBOUND:                 0.000
REMARK  Name = ZINC000004104725
REMARK  4 active torsions:
REMARK  status: ('A' for Active; 'I' for Inactive)
REMARK    1  A    between atoms: C_1  and  C_2
REMARK    2  A    between atoms: C_2  and  C_3
REMARK    3  A    between atoms: C_12  and  C_13
REMARK    4  A    between atoms: C_12  and  O_14
REMARK                            x       y       z     vdW  Elec       q    Type
REMARK                         _______ _______ _______ _____ _____    ______ ____
ROOT
ATOM      1  C   UNL     1      -4.543   3.893 -25.711  0.00  0.00    +0.011 C 
ATOM      2  C   UNL     1      -3.313   3.529 -25.506  0.00  0.00    -0.028 C 
ATOM      3  C   UNL     1      -2.243   3.135 -24.881  0.00  0.00    -0.001 C 
ATOM      4  C   UNL     1      -1.087   2.748 -24.430  0.00  0.00    +0.012 C 
ATOM      5  C   UNL     1      -0.753   2.448 -23.210  0.00  0.00    +0.075 C 
ATOM      6  C   UNL     1      -1.491   2.459 -22.140  0.00  0.00    +0.137 C 
ATOM      7  C   UNL     1      -2.747   2.775 -22.026  0.00  0.00    +0.061 C 
ATOM      8  C   UNL     1      -3.391   2.752 -20.898  0.00  0.00    +0.014 C 
ATOM      9  C   UNL     1      -4.618   3.120 -21.127  0.00  0.00    +0.035 C 
ATOM     10  C   UNL     1      -4.731   3.370 -22.398  0.00  0.00    +0.067 C 
ATOM     11  C   UNL     1      -5.102   3.678 -23.605  0.00  0.00    +0.041 C 
ATOM     12  C   UNL     1      -3.575   3.157 -22.953  0.00  0.00    +0.034 C 
ATOM     13  O   UNL     1      -0.895   2.110 -21.039  0.00  0.00    -0.297 OA
ATOM     14  C   UNL     1      -2.847   3.614 -26.717  0.00  0.00    +0.011 C 
ATOM     15  C   UNL     1      -3.351   3.317 -24.224  0.00  0.00    +0.005 C 
ENDROOT
BRANCH  10  16
ATOM     16  O   UNL     1      -5.964   3.647 -22.095  0.00  0.00    -0.389 OA
ATOM     17  H   UNL     1      -5.999   4.495 -21.624  0.00  0.00    +0.210 HD
ENDBRANCH  10  16
TORSDOF 1
ENDMDL
MODEL 3
REMARK VINA RESULT:    -9.155      1.354      3.366
REMARK INTER + INTRA:          -9.423
REMARK INTER:                  -9.423
REMARK INTRA:                   0.000
REMARK UNBOUND:                 0.000
REMARK  Name = ZINC000004104725
REMARK  4 active torsions:
REMARK  status: ('A' for Active; 'I' for Inactive)
REMARK    1  A    between atoms: C_1  and  C_2
REMARK    2  A    between atoms: C_2  and  C_3
REMARK    3  A    between atoms: C_12  and  C_13
REMARK    4  A    between atoms: C_12  and  O_14
REMARK                            x       y       z     vdW  Elec       q    Type
REMARK                         _______ _______ _______ _____ _____    ______ ____
ROOT
ATOM      1  C   UNL     1       0.060   2.200 -23.033  0.00  0.00    +0.011 C 
ATOM      2  C   UNL     1      -0.915   2.240 -22.175  0.00  0.00    -0.028 C 
ATOM      3  C   UNL     1      -2.105   2.425 -21.686  0.00  0.00    -0.001 C 
ATOM      4  C   UNL     1      -3.219   2.550 -21.028  0.00  0.00    +0.012 C 
ATOM      5  C   UNL     1      -4.376   2.953 -21.463  0.00  0.00    +0.075 C 
ATOM      6  C   UNL     1      -4.705   3.331 -22.663  0.00  0.00    +0.137 C 
ATOM      7  C   UNL     1      -3.957   3.400 -23.724  0.00  0.00    +0.061 C 
ATOM      8  C   UNL     1      -4.393   3.795 -24.883  0.00  0.00    +0.014 C 
ATOM      9  C   UNL     1      -3.402   3.747 -25.723  0.00  0.00    +0.035 C 
ATOM     10  C   UNL     1      -2.353   3.321 -25.083  0.00  0.00    +0.067 C 
ATOM     11  C   UNL     1      -1.182   2.923 -24.685  0.00  0.00    +0.041 C 
ATOM     12  C   UNL     1      -2.696   3.107 -23.848  0.00  0.00    +0.034 C 
ATOM     13  O   UNL     1      -5.944   3.688 -22.822  0.00  0.00    -0.297 OA
ATOM     14  C   UNL     1      -0.296   1.821 -21.111  0.00  0.00    +0.011 C 
ATOM     15  C   UNL     1      -1.872   2.673 -22.941  0.00  0.00    +0.005 C 
ENDROOT
BRANCH  10  16
ATOM     16  O   UNL     1      -1.765   3.452 -26.236  0.00  0.00    -0.389 OA
ATOM     17  H   UNL     1      -2.188   4.169 -26.735  0.00  0.00    +0.210 HD
ENDBRANCH  10  16
TORSDOF 1
ENDMDL
MODEL 4
REMARK VINA RESULT:    -9.032      1.561      3.999
REMARK INTER + INTRA:          -9.296
REMARK INTER:                  -9.296
REMARK INTRA:                   0.000
REMARK UNBOUND:                 0.000
REMARK  Name = ZINC000004104725
REMARK  4 active torsions:
REMARK  status: ('A' for Active; 'I' for Inactive)
REMARK    1  A    between atoms: C_1  and  C_2
REMARK    2  A    between atoms: C_2  and  C_3
REMARK    3  A    between atoms: C_12  and  C_13
REMARK    4  A    between atoms: C_12  and  O_14
REMARK                            x       y       z     vdW  Elec       q    Type
REMARK                         _______ _______ _______ _____ _____    ______ ____
ROOT
ATOM      1  C   UNL     1      -0.771   2.093 -21.624  0.00  0.00    +0.011 C 
ATOM      2  C   UNL     1      -0.804   2.517 -22.852  0.00  0.00    -0.028 C 
ATOM      3  C   UNL     1      -1.269   3.003 -23.964  0.00  0.00    -0.001 C 
ATOM      4  C   UNL     1      -1.552   3.470 -25.144  0.00  0.00    +0.012 C 
ATOM      5  C   UNL     1      -2.695   3.892 -25.595  0.00  0.00    +0.075 C 
ATOM      6  C   UNL     1      -3.838   3.953 -24.979  0.00  0.00    +0.137 C 
ATOM      7  C   UNL     1      -4.120   3.605 -23.759  0.00  0.00    +0.061 C 
ATOM      8  C   UNL     1      -5.307   3.709 -23.240  0.00  0.00    +0.014 C 
ATOM      9  C   UNL     1      -5.249   3.280 -22.014  0.00  0.00    +0.035 C 
ATOM     10  C   UNL     1      -4.026   2.910 -21.774  0.00  0.00    +0.067 C 
ATOM     11  C   UNL     1      -2.900   2.481 -21.289  0.00  0.00    +0.041 C 
ATOM     12  C   UNL     1      -3.328   3.112 -22.852  0.00  0.00    +0.034 C 
ATOM     13  O   UNL     1      -4.830   4.422 -25.675  0.00  0.00    -0.297 OA
ATOM     14  C   UNL     1       0.440   2.337 -23.186  0.00  0.00    +0.011 C 
ATOM     15  C   UNL     1      -2.059   2.844 -22.944  0.00  0.00    +0.005 C 
ENDROOT
BRANCH  10  16
ATOM     16  O   UNL     1      -4.489   2.620 -20.595  0.00  0.00    -0.389 OA
ATOM     17  H   UNL     1      -4.510   3.422 -20.049  0.00  0.00    +0.210 HD
ENDBRANCH  10  16
TORSDOF 1
ENDMDL
MODEL 5
REMARK VINA RESULT:    -8.815      1.540      3.012
REMARK INTER + INTRA:          -9.072
REMARK INTER:                  -9.072
REMARK INTRA:                   0.000
REMARK UNBOUND:                 0.000
REMARK  Name = ZINC000004104725
REMARK  4 active torsions:
REMARK  status: ('A' for Active; 'I' for Inactive)
REMARK    1  A    between atoms: C_1  and  C_2
REMARK    2  A    between atoms: C_2  and  C_3
REMARK    3  A    between atoms: C_12  and  C_13
REMARK    4  A    between atoms: C_12  and  O_14
REMARK                            x       y       z     vdW  Elec       q    Type
REMARK                         _______ _______ _______ _____ _____    ______ ____
ROOT
ATOM      1  C   UNL     1      -3.753   4.101 -25.447  0.00  0.00    +0.011 C 
ATOM      2  C   UNL     1      -3.881   3.711 -24.214  0.00  0.00    -0.028 C 
ATOM      3  C   UNL     1      -3.568   3.246 -23.041  0.00  0.00    -0.001 C 
ATOM      4  C   UNL     1      -3.442   2.806 -21.824  0.00  0.00    +0.012 C 
ATOM      5  C   UNL     1      -2.374   2.371 -21.226  0.00  0.00    +0.075 C 
ATOM      6  C   UNL     1      -1.166   2.267 -21.696  0.00  0.00    +0.137 C 
ATOM      7  C   UNL     1      -0.729   2.574 -22.881  0.00  0.00    +0.061 C 
ATOM      8  C   UNL     1       0.509   2.429 -23.248  0.00  0.00    +0.014 C 
ATOM      9  C   UNL     1       0.612   2.824 -24.483  0.00  0.00    +0.035 C 
ATOM     10  C   UNL     1      -0.563   3.214 -24.879  0.00  0.00    +0.067 C 
ATOM     11  C   UNL     1      -1.610   3.656 -25.509  0.00  0.00    +0.041 C 
ATOM     12  C   UNL     1      -1.392   3.060 -23.890  0.00  0.00    +0.034 C 
ATOM     13  O   UNL     1      -0.278   1.795 -20.872  0.00  0.00    -0.297 OA
ATOM     14  C   UNL     1      -5.151   3.928 -24.038  0.00  0.00    +0.011 C 
ATOM     15  C   UNL     1      -2.655   3.359 -23.961  0.00  0.00    +0.005 C 
ENDROOT
BRANCH  10  16
ATOM     16  O   UNL     1       0.047   3.461 -26.000  0.00  0.00    -0.389 OA
ATOM     17  H   UNL     1       0.977   3.671 -25.822  0.00  0.00    +0.210 HD
ENDBRANCH  10  16
TORSDOF 1
ENDMDL
MODEL 6
REMARK VINA RESULT:    -8.796      1.628      4.052
REMARK INTER + INTRA:          -9.053
REMARK INTER:                  -9.053
REMARK INTRA:                   0.000
REMARK UNBOUND:                 0.000
REMARK  Name = ZINC000004104725
REMARK  4 active torsions:
REMARK  status: ('A' for Active; 'I' for Inactive)
REMARK    1  A    between atoms: C_1  and  C_2
REMARK    2  A    between atoms: C_2  and  C_3
REMARK    3  A    between atoms: C_12  and  C_13
REMARK    4  A    between atoms: C_12  and  O_14
REMARK                            x       y       z     vdW  Elec       q    Type
REMARK                         _______ _______ _______ _____ _____    ______ ____
ROOT
ATOM      1  C   UNL     1      -2.909   3.330 -26.093  0.00  0.00    +0.011 C 
ATOM      2  C   UNL     1      -3.824   3.510 -25.188  0.00  0.00    -0.028 C 
ATOM      3  C   UNL     1      -4.397   3.552 -24.022  0.00  0.00    -0.001 C 
ATOM      4  C   UNL     1      -5.128   3.654 -22.952  0.00  0.00    +0.012 C 
ATOM      5  C   UNL     1      -4.800   3.405 -21.719  0.00  0.00    +0.075 C 
ATOM      6  C   UNL     1      -3.660   2.991 -21.251  0.00  0.00    +0.137 C 
ATOM      7  C   UNL     1      -2.566   2.724 -21.901  0.00  0.00    +0.061 C 
ATOM      8  C   UNL     1      -1.474   2.313 -21.328  0.00  0.00    +0.014 C 
ATOM      9  C   UNL     1      -0.575   2.140 -22.252  0.00  0.00    +0.035 C 
ATOM     10  C   UNL     1      -1.112   2.445 -23.397  0.00  0.00    +0.067 C 
ATOM     11  C   UNL     1      -1.404   2.684 -24.640  0.00  0.00    +0.041 C 
ATOM     12  C   UNL     1      -2.342   2.805 -23.180  0.00  0.00    +0.034 C 
ATOM     13  O   UNL     1      -3.606   2.821 -19.964  0.00  0.00    -0.297 OA
ATOM     14  C   UNL     1      -4.808   3.908 -25.937  0.00  0.00    +0.011 C 
ATOM     15  C   UNL     1      -3.157   3.174 -24.123  0.00  0.00    +0.005 C 
ENDROOT
BRANCH  10  16
ATOM     16  O   UNL     1       0.057   2.134 -23.873  0.00  0.00    -0.389 OA
ATOM     17  H   UNL     1       0.228   2.654 -24.675  0.00  0.00    +0.210 HD
ENDBRANCH  10  16
TORSDOF 1
ENDMDL
MODEL 7
REMARK VINA RESULT:    -8.746      1.602      3.514
REMARK INTER + INTRA:          -9.001
REMARK INTER:                  -9.001
REMARK INTRA:                   0.000
REMARK UNBOUND:                 0.000
REMARK  Name = ZINC000004104725
REMARK  4 active torsions:
REMARK  status: ('A' for Active; 'I' for Inactive)
REMARK    1  A    between atoms: C_1  and  C_2
REMARK    2  A    between atoms: C_2  and  C_3
REMARK    3  A    between atoms: C_12  and  C_13
REMARK    4  A    between atoms: C_12  and  O_14
REMARK                            x       y       z     vdW  Elec       q    Type
REMARK                         _______ _______ _______ _____ _____    ______ ____
ROOT
ATOM      1  C   UNL     1      -1.277   3.711 -25.852  0.00  0.00    +0.011 C 
ATOM      2  C   UNL     1      -0.975   3.343 -24.643  0.00  0.00    -0.028 C 
ATOM      3  C   UNL     1      -1.118   3.035 -23.388  0.00  0.00    -0.001 C 
ATOM      4  C   UNL     1      -1.068   2.696 -22.134  0.00  0.00    +0.012 C 
ATOM      5  C   UNL     1      -2.041   2.628 -21.274  0.00  0.00    +0.075 C 
ATOM      6  C   UNL     1      -3.303   2.883 -21.454  0.00  0.00    +0.137 C 
ATOM      7  C   UNL     1      -3.904   3.268 -22.541  0.00  0.00    +0.061 C 
ATOM      8  C   UNL     1      -5.182   3.495 -22.611  0.00  0.00    +0.014 C 
ATOM      9  C   UNL     1      -5.460   3.862 -23.827  0.00  0.00    +0.035 C 
ATOM     10  C   UNL     1      -4.353   3.861 -24.510  0.00  0.00    +0.067 C 
ATOM     11  C   UNL     1      -3.407   3.940 -25.397  0.00  0.00    +0.041 C 
ATOM     12  C   UNL     1      -3.392   3.494 -23.715  0.00  0.00    +0.034 C 
ATOM     13  O   UNL     1      -4.064   2.732 -20.412  0.00  0.00    -0.297 OA
ATOM     14  C   UNL     1       0.307   3.167 -24.774  0.00  0.00    +0.011 C 
ATOM     15  C   UNL     1      -2.152   3.390 -24.092  0.00  0.00    +0.005 C 
ENDROOT
BRANCH  10  16
ATOM     16  O   UNL     1      -5.116   4.244 -25.490  0.00  0.00    -0.389 OA
ATOM     17  H   UNL     1      -5.984   4.503 -25.141  0.00  0.00    +0.210 HD
ENDBRANCH  10  16
TORSDOF 1
ENDMDL
MODEL 8
REMARK VINA RESULT:    -8.683      0.732      3.219
REMARK INTER + INTRA:          -8.937
REMARK INTER:                  -8.937
REMARK INTRA:                   0.000
REMARK UNBOUND:                 0.000
REMARK  Name = ZINC000004104725
REMARK  4 active torsions:
REMARK  status: ('A' for Active; 'I' for Inactive)
REMARK    1  A    between atoms: C_1  and  C_2
REMARK    2  A    between atoms: C_2  and  C_3
REMARK    3  A    between atoms: C_12  and  C_13
REMARK    4  A    between atoms: C_12  and  O_14
REMARK                            x       y       z     vdW  Elec       q    Type
REMARK                         _______ _______ _______ _____ _____    ______ ____
ROOT
ATOM      1  C   UNL     1      -1.635   2.839 -21.004  0.00  0.00    +0.011 C 
ATOM      2  C   UNL     1      -2.882   3.090 -21.268  0.00  0.00    -0.028 C 
ATOM      3  C   UNL     1      -3.957   3.356 -21.950  0.00  0.00    -0.001 C 
ATOM      4  C   UNL     1      -5.123   3.619 -22.459  0.00  0.00    +0.012 C 
ATOM      5  C   UNL     1      -5.438   3.812 -23.705  0.00  0.00    +0.075 C 
ATOM      6  C   UNL     1      -4.665   3.788 -24.751  0.00  0.00    +0.137 C 
ATOM      7  C   UNL     1      -3.386   3.567 -24.807  0.00  0.00    +0.061 C 
ATOM      8  C   UNL     1      -2.706   3.567 -25.915  0.00  0.00    +0.014 C 
ATOM      9  C   UNL     1      -1.464   3.314 -25.625  0.00  0.00    +0.035 C 
ATOM     10  C   UNL     1      -1.375   3.157 -24.338  0.00  0.00    +0.067 C 
ATOM     11  C   UNL     1      -1.023   2.959 -23.103  0.00  0.00    +0.041 C 
ATOM     12  C   UNL     1      -2.562   3.313 -23.832  0.00  0.00    +0.034 C 
ATOM     13  O   UNL     1      -5.249   4.017 -25.889  0.00  0.00    -0.297 OA
ATOM     14  C   UNL     1      -3.381   3.047 -20.068  0.00  0.00    +0.011 C 
ATOM     15  C   UNL     1      -2.817   3.219 -22.560  0.00  0.00    +0.005 C 
ENDROOT
BRANCH  10  16
ATOM     16  O   UNL     1      -0.115   2.960 -24.585  0.00  0.00    -0.389 OA
ATOM     17  H   UNL     1       0.100   3.306 -25.467  0.00  0.00    +0.210 HD
ENDBRANCH  10  16
TORSDOF 1
ENDMDL
MODEL 9
REMARK VINA RESULT:    -8.532      2.062      3.581
REMARK INTER + INTRA:          -8.781
REMARK INTER:                  -8.781
REMARK INTRA:                   0.000
REMARK UNBOUND:                 0.000
REMARK  Name = ZINC000004104725
REMARK  4 active torsions:
REMARK  status: ('A' for Active; 'I' for Inactive)
REMARK    1  A    between atoms: C_1  and  C_2
REMARK    2  A    between atoms: C_2  and  C_3
REMARK    3  A    between atoms: C_12  and  C_13
REMARK    4  A    between atoms: C_12  and  O_14
REMARK                            x       y       z     vdW  Elec       q    Type
REMARK                         _______ _______ _______ _____ _____    ______ ____
ROOT
ATOM      1  C   UNL     1      -2.508   3.985 -24.585  0.00  0.00    +0.011 C 
ATOM      2  C   UNL     1      -2.331   3.351 -23.465  0.00  0.00    -0.028 C 
ATOM      3  C   UNL     1      -1.739   2.683 -22.520  0.00  0.00    -0.001 C 
ATOM      4  C   UNL     1      -1.320   2.020 -21.483  0.00  0.00    +0.012 C 
ATOM      5  C   UNL     1      -0.133   1.543 -21.253  0.00  0.00    +0.075 C 
ATOM      6  C   UNL     1       0.928   1.611 -22.001  0.00  0.00    +0.137 C 
ATOM      7  C   UNL     1       1.063   2.173 -23.165  0.00  0.00    +0.061 C 
ATOM      8  C   UNL     1       2.179   2.182 -23.831  0.00  0.00    +0.014 C 
ATOM      9  C   UNL     1       1.978   2.821 -24.946  0.00  0.00    +0.035 C 
ATOM     10  C   UNL     1       0.737   3.207 -24.969  0.00  0.00    +0.067 C 
ATOM     11  C   UNL     1      -0.437   3.697 -25.234  0.00  0.00    +0.041 C 
ATOM     12  C   UNL     1       0.172   2.807 -23.869  0.00  0.00    +0.034 C 
ATOM     13  O   UNL     1       1.994   1.041 -21.522  0.00  0.00    -0.297 OA
ATOM     14  C   UNL     1      -3.525   3.449 -22.959  0.00  0.00    +0.011 C 
ATOM     15  C   UNL     1      -1.076   3.034 -23.581  0.00  0.00    +0.005 C 
ENDROOT
BRANCH  10  16
ATOM     16  O   UNL     1       1.057   3.709 -26.124  0.00  0.00    -0.389 OA
ATOM     17  H   UNL     1       0.255   4.015 -26.577  0.00  0.00    +0.210 HD
ENDBRANCH  10  16
TORSDOF 1
ENDMDL
