MODEL 1
REMARK VINA RESULT:   -10.936      0.000      0.000
REMARK INTER + INTRA:         -12.009
REMARK INTER:                 -11.900
REMARK INTRA:                  -0.109
REMARK UNBOUND:                -0.114
REMARK  Name = COc1ccc2c3c1O[C@@H]1[C@@H](O)[C@@H](Cl)C=C4[C@@H](C2)N(C)CC[C@]431   ZINC000253505624
REMARK  4 active torsions:
REMARK  status: ('A' for Active; 'I' for Inactive)
REMARK    1  A    between atoms: C_1  and  O_2
REMARK    2  A    between atoms: O_2  and  C_3
REMARK    3  A    between atoms: C_11  and  O_12
REMARK    4  A    between atoms: N_19  and  C_20
REMARK                            x       y       z     vdW  Elec       q    Type
REMARK                         _______ _______ _______ _____ _____    ______ ____
ROOT
ATOM      1  C   UNL     1       1.255   1.768 -22.195  0.00  0.00    +0.162 A 
ATOM      2  C   UNL     1       1.792   2.122 -23.284  0.00  0.00    +0.050 A 
ATOM      3  C   UNL     1       1.114   2.677 -24.176  0.00  0.00    +0.008 A 
ATOM      4  C   UNL     1      -0.108   2.884 -23.989  0.00  0.00    -0.034 A 
ATOM      5  C   UNL     1      -0.664   2.540 -22.913  0.00  0.00    +0.015 A 
ATOM      6  C   UNL     1      -1.883   2.749 -22.733  0.00  0.00    +0.070 C 
ATOM      7  C   UNL     1      -3.261   2.934 -22.412  0.00  0.00    +0.071 C 
ATOM      8  C   UNL     1      -4.052   3.558 -23.400  0.00  0.00    +0.133 C 
ATOM      9  N   UNL     1      -3.419   3.939 -24.601  0.00  0.00    +0.239 N 
ATOM     10  H   UNL     1      -3.945   4.393 -25.347  0.00  0.00    +0.204 HD
ATOM     11  C   UNL     1      -4.048   4.497 -25.527  0.00  0.00    +0.191 C 
ATOM     12  C   UNL     1      -2.025   3.657 -24.711  0.00  0.00    +0.096 C 
ATOM     13  C   UNL     1      -2.566   3.304 -23.623  0.00  0.00    -0.010 C 
ATOM     14  C   UNL     1      -3.799   3.514 -23.437  0.00  0.00    +0.000 C 
ATOM     15  C   UNL     1      -4.339   3.167 -22.361  0.00  0.00    +0.135 C 
ATOM     16 CL   UNL     1      -5.559   3.377 -22.182  0.00  0.00    -0.115 Cl
ATOM     17  C   UNL     1      -3.656   2.605 -21.457  0.00  0.00    +0.178 C 
ATOM     18  C   UNL     1      -2.436   2.396 -21.638  0.00  0.00    +0.219 C 
ATOM     19  O   UNL     1      -1.148   1.844 -21.079  0.00  0.00    -0.481 OA
ATOM     20  C   UNL     1      -0.805   3.450 -24.897  0.00  0.00    +0.094 C 
ATOM     21  C   UNL     1       0.020   1.979 -22.011  0.00  0.00    +0.167 A 
ENDROOT
BRANCH   1  23
ATOM     22  C   UNL     1       3.068   0.750 -21.580  0.00  0.00    +0.277 C 
ATOM     23  O   UNL     1       1.937   1.213 -21.305  0.00  0.00    -0.491 OA
ENDBRANCH   1  23
BRANCH  17  24
ATOM     24  O   UNL     1      -4.199   2.259 -20.382  0.00  0.00    -0.386 OA
ATOM     25  H   UNL     1      -5.163   2.302 -20.480  0.00  0.00    +0.210 HD
ENDBRANCH  17  24
TORSDOF 2
ENDMDL
MODEL 2
REMARK VINA RESULT:   -10.833      2.146      4.856
REMARK INTER + INTRA:         -11.897
REMARK INTER:                 -11.770
REMARK INTRA:                  -0.127
REMARK UNBOUND:                -0.114
REMARK  Name = COc1ccc2c3c1O[C@@H]1[C@@H](O)[C@@H](Cl)C=C4[C@@H](C2)N(C)CC[C@]431   ZINC000253505624
REMARK  4 active torsions:
REMARK  status: ('A' for Active; 'I' for Inactive)
REMARK    1  A    between atoms: C_1  and  O_2
REMARK    2  A    between atoms: O_2  and  C_3
REMARK    3  A    between atoms: C_11  and  O_12
REMARK    4  A    between atoms: N_19  and  C_20
REMARK                            x       y       z     vdW  Elec       q    Type
REMARK                         _______ _______ _______ _____ _____    ______ ____
ROOT
ATOM      1  C   UNL     1      -4.568   3.448 -22.560  0.00  0.00    +0.162 A 
ATOM      2  C   UNL     1      -4.821   3.925 -23.704  0.00  0.00    +0.050 A 
ATOM      3  C   UNL     1      -3.926   3.994 -24.575  0.00  0.00    +0.008 A 
ATOM      4  C   UNL     1      -2.771   3.588 -24.312  0.00  0.00    -0.034 A 
ATOM      5  C   UNL     1      -2.496   3.109 -23.180  0.00  0.00    +0.015 A 
ATOM      6  C   UNL     1      -1.341   2.706 -22.924  0.00  0.00    +0.070 C 
ATOM      7  C   UNL     1      -0.065   2.215 -22.515  0.00  0.00    +0.071 C 
ATOM      8  C   UNL     1       0.965   2.280 -23.477  0.00  0.00    +0.133 C 
ATOM      9  N   UNL     1       0.646   2.818 -24.742  0.00  0.00    +0.239 N 
ATOM     10  H   UNL     1       1.354   2.888 -25.472  0.00  0.00    +0.204 HD
ATOM     11  C   UNL     1       1.501   2.911 -25.650  0.00  0.00    +0.191 C 
ATOM     12  C   UNL     1      -0.698   3.251 -24.936  0.00  0.00    +0.096 C 
ATOM     13  C   UNL     1      -0.442   2.773 -23.793  0.00  0.00    -0.010 C 
ATOM     14  C   UNL     1       0.725   2.364 -23.530  0.00  0.00    +0.000 C 
ATOM     15  C   UNL     1       0.984   1.890 -22.400  0.00  0.00    +0.135 C 
ATOM     16 CL   UNL     1       2.140   1.486 -22.144  0.00  0.00    -0.115 Cl
ATOM     17  C   UNL     1       0.081   1.818 -21.517  0.00  0.00    +0.178 C 
ATOM     18  C   UNL     1      -1.074   2.222 -21.774  0.00  0.00    +0.219 C 
ATOM     19  O   UNL     1      -2.484   2.427 -21.279  0.00  0.00    -0.481 OA
ATOM     20  C   UNL     1      -1.853   3.657 -25.198  0.00  0.00    +0.094 C 
ATOM     21  C   UNL     1      -3.398   3.038 -22.299  0.00  0.00    +0.167 A 
ENDROOT
BRANCH   1  23
ATOM     22  C   UNL     1      -6.494   2.698 -21.905  0.00  0.00    +0.277 C 
ATOM     23  O   UNL     1      -5.466   3.380 -21.692  0.00  0.00    -0.491 OA
ENDBRANCH   1  23
BRANCH  17  24
ATOM     24  O   UNL     1       0.344   1.344 -20.387  0.00  0.00    -0.386 OA
ATOM     25  H   UNL     1       0.614   2.060 -19.791  0.00  0.00    +0.210 HD
ENDBRANCH  17  24
TORSDOF 2
ENDMDL
MODEL 3
REMARK VINA RESULT:   -10.825      1.967      2.946
REMARK INTER + INTRA:         -11.889
REMARK INTER:                 -11.774
REMARK INTRA:                  -0.115
REMARK UNBOUND:                -0.114
REMARK  Name = COc1ccc2c3c1O[C@@H]1[C@@H](O)[C@@H](Cl)C=C4[C@@H](C2)N(C)CC[C@]431   ZINC000253505624
REMARK  4 active torsions:
REMARK  status: ('A' for Active; 'I' for Inactive)
REMARK    1  A    between atoms: C_1  and  O_2
REMARK    2  A    between atoms: O_2  and  C_3
REMARK    3  A    between atoms: C_11  and  O_12
REMARK    4  A    between atoms: N_19  and  C_20
REMARK                            x       y       z     vdW  Elec       q    Type
REMARK                         _______ _______ _______ _____ _____    ______ ____
ROOT
ATOM      1  C   UNL     1       1.416   1.833 -22.736  0.00  0.00    +0.162 A 
ATOM      2  C   UNL     1       1.228   1.581 -21.511  0.00  0.00    +0.050 A 
ATOM      3  C   UNL     1       0.098   1.734 -20.997  0.00  0.00    +0.008 A 
ATOM      4  C   UNL     1      -0.855   2.140 -21.702  0.00  0.00    -0.034 A 
ATOM      5  C   UNL     1      -0.691   2.397 -22.924  0.00  0.00    +0.015 A 
ATOM      6  C   UNL     1      -1.646   2.803 -23.622  0.00  0.00    +0.070 C 
ATOM      7  C   UNL     1      -2.653   3.269 -24.517  0.00  0.00    +0.071 C 
ATOM      8  C   UNL     1      -3.939   3.452 -23.966  0.00  0.00    +0.133 C 
ATOM      9  N   UNL     1      -4.112   3.160 -22.597  0.00  0.00    +0.239 N 
ATOM     10  H   UNL     1      -5.022   3.275 -22.150  0.00  0.00    +0.204 HD
ATOM     11  C   UNL     1      -5.220   3.295 -22.031  0.00  0.00    +0.191 C 
ATOM     12  C   UNL     1      -2.963   2.704 -21.886  0.00  0.00    +0.096 C 
ATOM     13  C   UNL     1      -2.778   2.957 -23.112  0.00  0.00    -0.010 C 
ATOM     14  C   UNL     1      -3.741   3.368 -23.822  0.00  0.00    +0.000 C 
ATOM     15  C   UNL     1      -3.564   3.620 -25.036  0.00  0.00    +0.135 C 
ATOM     16 CL   UNL     1      -4.519   4.025 -25.733  0.00  0.00    -0.115 Cl
ATOM     17  C   UNL     1      -2.422   3.466 -25.558  0.00  0.00    +0.178 C 
ATOM     18  C   UNL     1      -1.467   3.060 -24.859  0.00  0.00    +0.219 C 
ATOM     19  O   UNL     1      -0.007   2.687 -24.802  0.00  0.00    -0.481 OA
ATOM     20  C   UNL     1      -2.011   2.298 -21.183  0.00  0.00    +0.094 C 
ATOM     21  C   UNL     1       0.450   2.243 -23.444  0.00  0.00    +0.167 A 
ENDROOT
BRANCH   1  23
ATOM     22  C   UNL     1       3.280   0.733 -22.872  0.00  0.00    +0.277 C 
ATOM     23  O   UNL     1       2.548   1.678 -23.245  0.00  0.00    -0.491 OA
ENDBRANCH   1  23
BRANCH  17  24
ATOM     24  O   UNL     1      -2.247   3.719 -26.773  0.00  0.00    -0.386 OA
ATOM     25  H   UNL     1      -1.813   2.964 -27.200  0.00  0.00    +0.210 HD
ENDBRANCH  17  24
TORSDOF 2
ENDMDL
MODEL 4
REMARK VINA RESULT:   -10.457      2.886      5.702
REMARK INTER + INTRA:         -11.488
REMARK INTER:                 -11.369
REMARK INTRA:                  -0.119
REMARK UNBOUND:                -0.114
REMARK  Name = COc1ccc2c3c1O[C@@H]1[C@@H](O)[C@@H](Cl)C=C4[C@@H](C2)N(C)CC[C@]431   ZINC000253505624
REMARK  4 active torsions:
REMARK  status: ('A' for Active; 'I' for Inactive)
REMARK    1  A    between atoms: C_1  and  O_2
REMARK    2  A    between atoms: O_2  and  C_3
REMARK    3  A    between atoms: C_11  and  O_12
REMARK    4  A    between atoms: N_19  and  C_20
REMARK                            x       y       z     vdW  Elec       q    Type
REMARK                         _______ _______ _______ _____ _____    ______ ____
ROOT
ATOM      1  C   UNL     1      -3.973   3.719 -23.610  0.00  0.00    +0.162 A 
ATOM      2  C   UNL     1      -4.316   3.275 -22.477  0.00  0.00    +0.050 A 
ATOM      3  C   UNL     1      -3.471   2.751 -21.717  0.00  0.00    +0.008 A 
ATOM      4  C   UNL     1      -2.276   2.666 -22.083  0.00  0.00    -0.034 A 
ATOM      5  C   UNL     1      -1.912   3.101 -23.207  0.00  0.00    +0.015 A 
ATOM      6  C   UNL     1      -0.717   3.013 -23.567  0.00  0.00    +0.070 C 
ATOM      7  C   UNL     1       0.611   2.970 -24.086  0.00  0.00    +0.071 C 
ATOM      8  C   UNL     1       1.587   2.384 -23.252  0.00  0.00    +0.133 C 
ATOM      9  N   UNL     1       1.168   1.900 -21.995  0.00  0.00    +0.239 N 
ATOM     10  H   UNL     1       1.833   1.468 -21.354  0.00  0.00    +0.204 HD
ATOM     11  C   UNL     1       1.970   1.368 -21.196  0.00  0.00    +0.191 C 
ATOM     12  C   UNL     1      -0.214   2.047 -21.677  0.00  0.00    +0.096 C 
ATOM     13  C   UNL     1       0.132   2.490 -22.810  0.00  0.00    -0.010 C 
ATOM     14  C   UNL     1       1.339   2.403 -23.178  0.00  0.00    +0.000 C 
ATOM     15  C   UNL     1       1.687   2.840 -24.299  0.00  0.00    +0.135 C 
ATOM     16 CL   UNL     1       2.882   2.751 -24.657  0.00  0.00    -0.115 Cl
ATOM     17  C   UNL     1       0.835   3.370 -25.069  0.00  0.00    +0.178 C 
ATOM     18  C   UNL     1      -0.360   3.458 -24.708  0.00  0.00    +0.219 C 
ATOM     19  O   UNL     1      -1.757   3.909 -25.053  0.00  0.00    -0.481 OA
ATOM     20  C   UNL     1      -1.409   2.133 -21.312  0.00  0.00    +0.094 C 
ATOM     21  C   UNL     1      -2.763   3.631 -23.975  0.00  0.00    +0.167 A 
ENDROOT
BRANCH   1  23
ATOM     22  C   UNL     1      -5.158   3.665 -25.425  0.00  0.00    +0.277 C 
ATOM     23  O   UNL     1      -4.821   4.242 -24.366  0.00  0.00    -0.491 OA
ENDBRANCH   1  23
BRANCH  17  24
ATOM     24  O   UNL     1       1.186   3.807 -26.189  0.00  0.00    -0.386 OA
ATOM     25  H   UNL     1       0.937   3.169 -26.876  0.00  0.00    +0.210 HD
ENDBRANCH  17  24
TORSDOF 2
ENDMDL
MODEL 5
REMARK VINA RESULT:   -10.361      3.307      5.949
REMARK INTER + INTRA:         -11.384
REMARK INTER:                 -11.264
REMARK INTRA:                  -0.120
REMARK UNBOUND:                -0.114
REMARK  Name = COc1ccc2c3c1O[C@@H]1[C@@H](O)[C@@H](Cl)C=C4[C@@H](C2)N(C)CC[C@]431   ZINC000253505624
REMARK  4 active torsions:
REMARK  status: ('A' for Active; 'I' for Inactive)
REMARK    1  A    between atoms: C_1  and  O_2
REMARK    2  A    between atoms: O_2  and  C_3
REMARK    3  A    between atoms: C_11  and  O_12
REMARK    4  A    between atoms: N_19  and  C_20
REMARK                            x       y       z     vdW  Elec       q    Type
REMARK                         _______ _______ _______ _____ _____    ______ ____
ROOT
ATOM      1  C   UNL     1      -1.760   3.332 -23.262  0.00  0.00    +0.162 A 
ATOM      2  C   UNL     1      -1.776   4.590 -23.388  0.00  0.00    +0.050 A 
ATOM      3  C   UNL     1      -0.709   5.243 -23.386  0.00  0.00    +0.008 A 
ATOM      4  C   UNL     1       0.384   4.645 -23.258  0.00  0.00    -0.034 A 
ATOM      5  C   UNL     1       0.425   3.393 -23.130  0.00  0.00    +0.015 A 
ATOM      6  C   UNL     1       1.519   2.802 -23.002  0.00  0.00    +0.070 C 
ATOM      7  C   UNL     1       2.701   2.018 -22.850  0.00  0.00    +0.071 C 
ATOM      8  C   UNL     1       3.921   2.727 -22.844  0.00  0.00    +0.133 C 
ATOM      9  N   UNL     1       3.865   4.129 -22.987  0.00  0.00    +0.239 N 
ATOM     10  H   UNL     1       4.717   4.688 -22.989  0.00  0.00    +0.204 HD
ATOM     11  C   UNL     1       4.900   4.831 -22.992  0.00  0.00    +0.191 C 
ATOM     12  C   UNL     1       2.570   4.709 -23.127  0.00  0.00    +0.096 C 
ATOM     13  C   UNL     1       2.590   3.451 -23.000  0.00  0.00    -0.010 C 
ATOM     14  C   UNL     1       3.694   2.849 -22.870  0.00  0.00    +0.000 C 
ATOM     15  C   UNL     1       3.719   1.603 -22.744  0.00  0.00    +0.135 C 
ATOM     16 CL   UNL     1       4.815   1.012 -22.616  0.00  0.00    -0.115 Cl
ATOM     17  C   UNL     1       2.642   0.940 -22.746  0.00  0.00    +0.178 C 
ATOM     18  C   UNL     1       1.548   1.532 -22.874  0.00  0.00    +0.219 C 
ATOM     19  O   UNL     1       0.046   1.416 -22.957  0.00  0.00    -0.481 OA
ATOM     20  C   UNL     1       1.477   5.306 -23.255  0.00  0.00    +0.094 C 
ATOM     21  C   UNL     1      -0.652   2.732 -23.132  0.00  0.00    +0.167 A 
ENDROOT
BRANCH   1  23
ATOM     22  C   UNL     1      -3.781   3.041 -22.533  0.00  0.00    +0.277 C 
ATOM     23  O   UNL     1      -2.830   2.684 -23.264  0.00  0.00    -0.491 OA
ENDBRANCH   1  23
BRANCH  17  24
ATOM     24  O   UNL     1       2.670  -0.306 -22.619  0.00  0.00    -0.386 OA
ATOM     25  H   UNL     1       2.908  -0.532 -21.707  0.00  0.00    +0.210 HD
ENDBRANCH  17  24
TORSDOF 2
ENDMDL
MODEL 6
REMARK VINA RESULT:    -9.729      2.390      3.595
REMARK INTER + INTRA:         -10.696
REMARK INTER:                 -10.551
REMARK INTRA:                  -0.145
REMARK UNBOUND:                -0.114
REMARK  Name = COc1ccc2c3c1O[C@@H]1[C@@H](O)[C@@H](Cl)C=C4[C@@H](C2)N(C)CC[C@]431   ZINC000253505624
REMARK  4 active torsions:
REMARK  status: ('A' for Active; 'I' for Inactive)
REMARK    1  A    between atoms: C_1  and  O_2
REMARK    2  A    between atoms: O_2  and  C_3
REMARK    3  A    between atoms: C_11  and  O_12
REMARK    4  A    between atoms: N_19  and  C_20
REMARK                            x       y       z     vdW  Elec       q    Type
REMARK                         _______ _______ _______ _____ _____    ______ ____
ROOT
ATOM      1  C   UNL     1       3.478   1.714 -22.652  0.00  0.00    +0.162 A 
ATOM      2  C   UNL     1       3.447   1.322 -21.450  0.00  0.00    +0.050 A 
ATOM      3  C   UNL     1       2.364   1.277 -20.824  0.00  0.00    +0.008 A 
ATOM      4  C   UNL     1       1.303   1.622 -21.394  0.00  0.00    -0.034 A 
ATOM      5  C   UNL     1       1.311   2.015 -22.590  0.00  0.00    +0.015 A 
ATOM      6  C   UNL     1       0.248   2.359 -23.153  0.00  0.00    +0.070 C 
ATOM      7  C   UNL     1      -0.894   2.774 -23.899  0.00  0.00    +0.071 C 
ATOM      8  C   UNL     1      -2.130   2.734 -23.220  0.00  0.00    +0.133 C 
ATOM      9  N   UNL     1      -2.127   2.292 -21.881  0.00  0.00    +0.239 N 
ATOM     10  H   UNL     1      -2.993   2.244 -21.345  0.00  0.00    +0.204 HD
ATOM     11  C   UNL     1      -3.180   2.227 -21.208  0.00  0.00    +0.191 C 
ATOM     12  C   UNL     1      -0.865   1.923 -21.328  0.00  0.00    +0.096 C 
ATOM     13  C   UNL     1      -0.838   2.315 -22.531  0.00  0.00    -0.010 C 
ATOM     14  C   UNL     1      -1.910   2.663 -23.104  0.00  0.00    +0.000 C 
ATOM     15  C   UNL     1      -1.888   3.052 -24.294  0.00  0.00    +0.135 C 
ATOM     16 CL   UNL     1      -2.951   3.396 -24.856  0.00  0.00    -0.115 Cl
ATOM     17  C   UNL     1      -0.795   3.099 -24.929  0.00  0.00    +0.178 C 
ATOM     18  C   UNL     1       0.267   2.756 -24.366  0.00  0.00    +0.219 C 
ATOM     19  O   UNL     1       1.760   2.572 -24.480  0.00  0.00    -0.481 OA
ATOM     20  C   UNL     1       0.196   1.578 -20.761  0.00  0.00    +0.094 C 
ATOM     21  C   UNL     1       2.402   2.062 -23.224  0.00  0.00    +0.167 A 
ENDROOT
BRANCH   1  23
ATOM     22  C   UNL     1       5.288   2.776 -23.198  0.00  0.00    +0.277 C 
ATOM     23  O   UNL     1       4.563   1.758 -23.274  0.00  0.00    -0.491 OA
ENDBRANCH   1  23
BRANCH  17  24
ATOM     24  O   UNL     1      -0.776   3.489 -26.120  0.00  0.00    -0.386 OA
ATOM     25  H   UNL     1      -1.057   4.416 -26.160  0.00  0.00    +0.210 HD
ENDBRANCH  17  24
TORSDOF 2
ENDMDL
MODEL 7
REMARK VINA RESULT:    -9.494      2.640      5.254
REMARK INTER + INTRA:         -10.440
REMARK INTER:                 -10.332
REMARK INTRA:                  -0.108
REMARK UNBOUND:                -0.114
REMARK  Name = COc1ccc2c3c1O[C@@H]1[C@@H](O)[C@@H](Cl)C=C4[C@@H](C2)N(C)CC[C@]431   ZINC000253505624
REMARK  4 active torsions:
REMARK  status: ('A' for Active; 'I' for Inactive)
REMARK    1  A    between atoms: C_1  and  O_2
REMARK    2  A    between atoms: O_2  and  C_3
REMARK    3  A    between atoms: C_11  and  O_12
REMARK    4  A    between atoms: N_19  and  C_20
REMARK                            x       y       z     vdW  Elec       q    Type
REMARK                         _______ _______ _______ _____ _____    ______ ____
ROOT
ATOM      1  C   UNL     1      -2.796   3.237 -23.583  0.00  0.00    +0.162 A 
ATOM      2  C   UNL     1      -2.630   3.621 -24.776  0.00  0.00    +0.050 A 
ATOM      3  C   UNL     1      -1.493   3.605 -25.297  0.00  0.00    +0.008 A 
ATOM      4  C   UNL     1      -0.510   3.206 -24.629  0.00  0.00    -0.034 A 
ATOM      5  C   UNL     1      -0.651   2.819 -23.440  0.00  0.00    +0.015 A 
ATOM      6  C   UNL     1       0.333   2.422 -22.779  0.00  0.00    +0.070 C 
ATOM      7  C   UNL     1       1.376   1.950 -21.928  0.00  0.00    +0.071 C 
ATOM      8  C   UNL     1       2.671   1.920 -22.488  0.00  0.00    +0.133 C 
ATOM      9  N   UNL     1       2.818   2.356 -23.821  0.00  0.00    +0.239 N 
ATOM     10  H   UNL     1       3.732   2.355 -24.273  0.00  0.00    +0.204 HD
ATOM     11  C   UNL     1       3.931   2.361 -24.391  0.00  0.00    +0.191 C 
ATOM     12  C   UNL     1       1.636   2.790 -24.490  0.00  0.00    +0.096 C 
ATOM     13  C   UNL     1       1.474   2.405 -23.296  0.00  0.00    -0.010 C 
ATOM     14  C   UNL     1       2.467   2.003 -22.624  0.00  0.00    +0.000 C 
ATOM     15  C   UNL     1       2.311   1.621 -21.441  0.00  0.00    +0.135 C 
ATOM     16 CL   UNL     1       3.297   1.224 -20.781  0.00  0.00    -0.115 Cl
ATOM     17  C   UNL     1       1.162   1.635 -20.912  0.00  0.00    +0.178 C 
ATOM     18  C   UNL     1       0.178   2.033 -21.574  0.00  0.00    +0.219 C 
ATOM     19  O   UNL     1      -1.307   2.297 -21.601  0.00  0.00    -0.481 OA
ATOM     20  C   UNL     1       0.653   3.188 -25.156  0.00  0.00    +0.094 C 
ATOM     21  C   UNL     1      -1.799   2.834 -22.912  0.00  0.00    +0.167 A 
ENDROOT
BRANCH   1  23
ATOM     22  C   UNL     1      -4.903   3.734 -23.699  0.00  0.00    +0.277 C 
ATOM     23  O   UNL     1      -3.935   3.254 -23.066  0.00  0.00    -0.491 OA
ENDBRANCH   1  23
BRANCH  17  24
ATOM     24  O   UNL     1       1.011   1.253 -19.729  0.00  0.00    -0.386 OA
ATOM     25  H   UNL     1       1.715   0.627 -19.500  0.00  0.00    +0.210 HD
ENDBRANCH  17  24
TORSDOF 2
ENDMDL
MODEL 8
REMARK VINA RESULT:    -9.170      1.434      2.111
REMARK INTER + INTRA:         -10.088
REMARK INTER:                  -9.941
REMARK INTRA:                  -0.148
REMARK UNBOUND:                -0.114
REMARK  Name = COc1ccc2c3c1O[C@@H]1[C@@H](O)[C@@H](Cl)C=C4[C@@H](C2)N(C)CC[C@]431   ZINC000253505624
REMARK  4 active torsions:
REMARK  status: ('A' for Active; 'I' for Inactive)
REMARK    1  A    between atoms: C_1  and  O_2
REMARK    2  A    between atoms: O_2  and  C_3
REMARK    3  A    between atoms: C_11  and  O_12
REMARK    4  A    between atoms: N_19  and  C_20
REMARK                            x       y       z     vdW  Elec       q    Type
REMARK                         _______ _______ _______ _____ _____    ______ ____
ROOT
ATOM      1  C   UNL     1       3.323   2.015 -22.113  0.00  0.00    +0.162 A 
ATOM      2  C   UNL     1       3.925   2.289 -23.191  0.00  0.00    +0.050 A 
ATOM      3  C   UNL     1       3.284   2.643 -24.205  0.00  0.00    +0.008 A 
ATOM      4  C   UNL     1       2.035   2.726 -24.152  0.00  0.00    -0.034 A 
ATOM      5  C   UNL     1       1.414   2.459 -23.090  0.00  0.00    +0.015 A 
ATOM      6  C   UNL     1       0.167   2.544 -23.044  0.00  0.00    +0.070 C 
ATOM      7  C   UNL     1      -1.247   2.604 -22.868  0.00  0.00    +0.071 C 
ATOM      8  C   UNL     1      -1.998   3.000 -23.996  0.00  0.00    +0.133 C 
ATOM      9  N   UNL     1      -1.292   3.298 -25.180  0.00  0.00    +0.239 N 
ATOM     10  H   UNL     1      -1.787   3.589 -26.023  0.00  0.00    +0.204 HD
ATOM     11  C   UNL     1      -1.882   3.656 -26.224  0.00  0.00    +0.191 C 
ATOM     12  C   UNL     1       0.127   3.171 -25.133  0.00  0.00    +0.096 C 
ATOM     13  C   UNL     1      -0.478   2.898 -24.056  0.00  0.00    -0.010 C 
ATOM     14  C   UNL     1      -1.739   2.983 -24.005  0.00  0.00    +0.000 C 
ATOM     15  C   UNL     1      -2.344   2.713 -22.941  0.00  0.00    +0.135 C 
ATOM     16 CL   UNL     1      -3.591   2.799 -22.896  0.00  0.00    -0.115 Cl
ATOM     17  C   UNL     1      -1.698   2.356 -21.914  0.00  0.00    +0.178 C 
ATOM     18  C   UNL     1      -0.451   2.270 -21.962  0.00  0.00    +0.219 C 
ATOM     19  O   UNL     1       0.826   1.949 -21.226  0.00  0.00    -0.481 OA
ATOM     20  C   UNL     1       1.375   3.087 -25.184  0.00  0.00    +0.094 C 
ATOM     21  C   UNL     1       2.060   2.102 -22.065  0.00  0.00    +0.167 A 
ENDROOT
BRANCH   1  23
ATOM     22  C   UNL     1       4.158   0.446 -20.872  0.00  0.00    +0.277 C 
ATOM     23  O   UNL     1       3.968   1.662 -21.101  0.00  0.00    -0.491 OA
ENDBRANCH   1  23
BRANCH  17  24
ATOM     24  O   UNL     1      -2.306   2.087 -20.852  0.00  0.00    -0.386 OA
ATOM     25  H   UNL     1      -3.249   2.288 -20.960  0.00  0.00    +0.210 HD
ENDBRANCH  17  24
TORSDOF 2
ENDMDL
MODEL 9
REMARK VINA RESULT:    -8.871      3.499      6.361
REMARK INTER + INTRA:          -9.763
REMARK INTER:                  -9.649
REMARK INTRA:                  -0.114
REMARK UNBOUND:                -0.114
REMARK  Name = COc1ccc2c3c1O[C@@H]1[C@@H](O)[C@@H](Cl)C=C4[C@@H](C2)N(C)CC[C@]431   ZINC000253505624
REMARK  4 active torsions:
REMARK  status: ('A' for Active; 'I' for Inactive)
REMARK    1  A    between atoms: C_1  and  O_2
REMARK    2  A    between atoms: O_2  and  C_3
REMARK    3  A    between atoms: C_11  and  O_12
REMARK    4  A    between atoms: N_19  and  C_20
REMARK                            x       y       z     vdW  Elec       q    Type
REMARK                         _______ _______ _______ _____ _____    ______ ____
ROOT
ATOM      1  C   UNL     1      -1.574   3.910 -23.519  0.00  0.00    +0.162 A 
ATOM      2  C   UNL     1      -2.173   2.900 -23.049  0.00  0.00    +0.050 A 
ATOM      3  C   UNL     1      -1.532   1.990 -22.478  0.00  0.00    +0.008 A 
ATOM      4  C   UNL     1      -0.287   2.081 -22.371  0.00  0.00    -0.034 A 
ATOM      5  C   UNL     1       0.330   3.078 -22.830  0.00  0.00    +0.015 A 
ATOM      6  C   UNL     1       1.573   3.163 -22.720  0.00  0.00    +0.070 C 
ATOM      7  C   UNL     1       2.982   3.372 -22.655  0.00  0.00    +0.071 C 
ATOM      8  C   UNL     1       3.733   2.362 -22.016  0.00  0.00    +0.133 C 
ATOM      9  N   UNL     1       3.032   1.250 -21.505  0.00  0.00    +0.239 N 
ATOM     10  H   UNL     1       3.527   0.493 -21.035  0.00  0.00    +0.204 HD
ATOM     11  C   UNL     1       3.622   0.312 -20.925  0.00  0.00    +0.191 C 
ATOM     12  C   UNL     1       1.617   1.245 -21.681  0.00  0.00    +0.096 C 
ATOM     13  C   UNL     1       2.218   2.255 -22.149  0.00  0.00    -0.010 C 
ATOM     14  C   UNL     1       3.475   2.345 -22.039  0.00  0.00    +0.000 C 
ATOM     15  C   UNL     1       4.076   3.342 -22.501  0.00  0.00    +0.135 C 
ATOM     16 CL   UNL     1       5.319   3.426 -22.390  0.00  0.00    -0.115 Cl
ATOM     17  C   UNL     1       3.430   4.264 -23.079  0.00  0.00    +0.178 C 
ATOM     18  C   UNL     1       2.187   4.178 -23.189  0.00  0.00    +0.219 C 
ATOM     19  O   UNL     1       0.913   4.811 -23.691  0.00  0.00    -0.481 OA
ATOM     20  C   UNL     1       0.373   1.155 -21.789  0.00  0.00    +0.094 C 
ATOM     21  C   UNL     1      -0.315   3.998 -23.407  0.00  0.00    +0.167 A 
ENDROOT
BRANCH   1  23
ATOM     22  C   UNL     1      -3.239   4.536 -24.758  0.00  0.00    +0.277 C 
ATOM     23  O   UNL     1      -2.219   4.818 -24.089  0.00  0.00    -0.491 OA
ENDBRANCH   1  23
BRANCH  17  24
ATOM     24  O   UNL     1       4.034   5.260 -23.540  0.00  0.00    -0.386 OA
ATOM     25  H   UNL     1       4.489   5.723 -22.819  0.00  0.00    +0.210 HD
ENDBRANCH  17  24
TORSDOF 2
ENDMDL
