MODEL 1
REMARK VINA RESULT:   -11.938      0.000      0.000
REMARK INTER + INTRA:         -11.083
REMARK INTER:                 -11.281
REMARK INTRA:                   0.198
REMARK UNBOUND:                 1.553
REMARK  Name = ZINC000000265501
REMARK  2 active torsions:
REMARK  status: ('A' for Active; 'I' for Inactive)
REMARK    1  A    between atoms: C_1  and  N_2
REMARK    2  A    between atoms: C_3  and  C_4
REMARK                            x       y       z     vdW  Elec       q    Type
REMARK                         _______ _______ _______ _____ _____    ______ ____
ROOT
ATOM      1  C   UNL     1      -1.369   2.638 -21.524  0.00  0.00    +0.149 C 
ATOM      2  N   UNL     1      -2.082   3.169 -22.473  0.00  0.00    -0.343 N 
ATOM      3  C   UNL     1      -1.496   3.704 -23.504  0.00  0.00    +0.053 A 
ATOM      4  C   UNL     1      -2.209   4.236 -24.452  0.00  0.00    +0.077 A 
ATOM      5  C   UNL     1      -3.507   4.232 -24.370  0.00  0.00    +0.190 A 
ATOM      6  C   UNL     1      -4.091   3.697 -23.340  0.00  0.00    +0.045 A 
ATOM      7  C   UNL     1      -5.388   3.693 -23.258  0.00  0.00    +0.014 A 
ATOM      8  C   UNL     1      -5.974   3.158 -22.227  0.00  0.00    +0.001 A 
ATOM      9  C   UNL     1      -5.261   2.627 -21.279  0.00  0.00    +0.002 A 
ATOM     10  C   UNL     1      -3.963   2.630 -21.361  0.00  0.00    +0.026 A 
ATOM     11  O   UNL     1      -4.219   4.763 -25.319  0.00  0.00    -0.287 OA
ATOM     12  C   UNL     1      -3.379   3.165 -22.391  0.00  0.00    +0.053 A 
ENDROOT
BRANCH   3  13
ATOM     13  C   UNL     1      -0.199   3.708 -23.585  0.00  0.00    +0.002 A 
ATOM     14  C   UNL     1       0.463   4.808 -23.383  0.00  0.00    +0.014 A 
ATOM     15  C   UNL     1       1.760   4.811 -23.464  0.00  0.00    +0.050 A 
ATOM     16  C   UNL     1       2.397   3.712 -23.747  0.00  0.00    +0.166 A 
ATOM     17  C   UNL     1       1.735   2.611 -23.949  0.00  0.00    +0.167 A 
ATOM     18  O   UNL     1       2.591   1.670 -24.211  0.00  0.00    -0.453 OA
ATOM     19  C   UNL     1       3.783   2.188 -24.171  0.00  0.00    +0.466 C 
ATOM     20  O   UNL     1       3.662   3.451 -23.884  0.00  0.00    -0.453 OA
ATOM     21  C   UNL     1       0.437   2.610 -23.867  0.00  0.00    +0.059 A 
ENDBRANCH   3  13
TORSDOF 1
ENDMDL
MODEL 2
REMARK VINA RESULT:   -11.394      1.919      2.578
REMARK INTER + INTRA:         -10.508
REMARK INTER:                 -11.027
REMARK INTRA:                   0.519
REMARK UNBOUND:                 1.553
REMARK  Name = ZINC000000265501
REMARK  2 active torsions:
REMARK  status: ('A' for Active; 'I' for Inactive)
REMARK    1  A    between atoms: C_1  and  N_2
REMARK    2  A    between atoms: C_3  and  C_4
REMARK                            x       y       z     vdW  Elec       q    Type
REMARK                         _______ _______ _______ _____ _____    ______ ____
ROOT
ATOM      1  C   UNL     1      -1.016   3.363 -24.703  0.00  0.00    +0.149 C 
ATOM      2  N   UNL     1      -1.693   3.192 -23.606  0.00  0.00    -0.343 N 
ATOM      3  C   UNL     1      -1.086   2.815 -22.519  0.00  0.00    +0.053 A 
ATOM      4  C   UNL     1      -1.763   2.644 -21.423  0.00  0.00    +0.077 A 
ATOM      5  C   UNL     1      -3.047   2.850 -21.413  0.00  0.00    +0.190 A 
ATOM      6  C   UNL     1      -3.653   3.227 -22.500  0.00  0.00    +0.045 A 
ATOM      7  C   UNL     1      -4.936   3.433 -22.490  0.00  0.00    +0.014 A 
ATOM      8  C   UNL     1      -5.543   3.810 -23.576  0.00  0.00    +0.001 A 
ATOM      9  C   UNL     1      -4.866   3.981 -24.673  0.00  0.00    +0.002 A 
ATOM     10  C   UNL     1      -3.582   3.775 -24.682  0.00  0.00    +0.026 A 
ATOM     11  O   UNL     1      -3.724   2.679 -20.317  0.00  0.00    -0.287 OA
ATOM     12  C   UNL     1      -2.976   3.398 -23.596  0.00  0.00    +0.053 A 
ENDROOT
BRANCH   3  13
ATOM     13  C   UNL     1       0.198   2.609 -22.530  0.00  0.00    +0.002 A 
ATOM     14  C   UNL     1       1.004   3.544 -22.936  0.00  0.00    +0.014 A 
ATOM     15  C   UNL     1       2.287   3.338 -22.947  0.00  0.00    +0.050 A 
ATOM     16  C   UNL     1       2.765   2.195 -22.551  0.00  0.00    +0.166 A 
ATOM     17  C   UNL     1       1.959   1.259 -22.145  0.00  0.00    +0.167 A 
ATOM     18  O   UNL     1       2.676   0.229 -21.808  0.00  0.00    -0.453 OA
ATOM     19  C   UNL     1       3.926   0.528 -22.006  0.00  0.00    +0.466 C 
ATOM     20  O   UNL     1       3.980   1.744 -22.465  0.00  0.00    -0.453 OA
ATOM     21  C   UNL     1       0.675   1.466 -22.135  0.00  0.00    +0.059 A 
ENDBRANCH   3  13
TORSDOF 1
ENDMDL
MODEL 3
REMARK VINA RESULT:   -11.295      1.531      1.689
REMARK INTER + INTRA:         -10.403
REMARK INTER:                 -10.760
REMARK INTRA:                   0.358
REMARK UNBOUND:                 1.553
REMARK  Name = ZINC000000265501
REMARK  2 active torsions:
REMARK  status: ('A' for Active; 'I' for Inactive)
REMARK    1  A    between atoms: C_1  and  N_2
REMARK    2  A    between atoms: C_3  and  C_4
REMARK                            x       y       z     vdW  Elec       q    Type
REMARK                         _______ _______ _______ _____ _____    ______ ____
ROOT
ATOM      1  C   UNL     1      -1.473   2.775 -21.295  0.00  0.00    +0.149 C 
ATOM      2  N   UNL     1      -1.767   3.009 -22.540  0.00  0.00    -0.343 N 
ATOM      3  C   UNL     1      -0.830   3.008 -23.441  0.00  0.00    +0.053 A 
ATOM      4  C   UNL     1      -1.124   3.242 -24.685  0.00  0.00    +0.077 A 
ATOM      5  C   UNL     1      -2.356   3.478 -25.028  0.00  0.00    +0.190 A 
ATOM      6  C   UNL     1      -3.293   3.480 -24.127  0.00  0.00    +0.045 A 
ATOM      7  C   UNL     1      -4.524   3.716 -24.470  0.00  0.00    +0.014 A 
ATOM      8  C   UNL     1      -5.461   3.718 -23.569  0.00  0.00    +0.001 A 
ATOM      9  C   UNL     1      -5.167   3.484 -22.324  0.00  0.00    +0.002 A 
ATOM     10  C   UNL     1      -3.935   3.247 -21.981  0.00  0.00    +0.026 A 
ATOM     11  O   UNL     1      -2.651   3.713 -26.272  0.00  0.00    -0.287 OA
ATOM     12  C   UNL     1      -2.998   3.246 -22.883  0.00  0.00    +0.053 A 
ENDROOT
BRANCH   3  13
ATOM     13  C   UNL     1       0.402   2.771 -23.097  0.00  0.00    +0.002 A 
ATOM     14  C   UNL     1       1.309   3.689 -23.253  0.00  0.00    +0.014 A 
ATOM     15  C   UNL     1       2.539   3.452 -22.909  0.00  0.00    +0.050 A 
ATOM     16  C   UNL     1       2.864   2.297 -22.408  0.00  0.00    +0.166 A 
ATOM     17  C   UNL     1       1.957   1.378 -22.252  0.00  0.00    +0.167 A 
ATOM     18  O   UNL     1       2.529   0.330 -21.741  0.00  0.00    -0.453 OA
ATOM     19  C   UNL     1       3.791   0.600 -21.580  0.00  0.00    +0.466 C 
ATOM     20  O   UNL     1       3.998   1.816 -21.993  0.00  0.00    -0.453 OA
ATOM     21  C   UNL     1       0.725   1.616 -22.597  0.00  0.00    +0.059 A 
ENDBRANCH   3  13
TORSDOF 1
ENDMDL
MODEL 4
REMARK VINA RESULT:   -11.175      1.634      6.324
REMARK INTER + INTRA:         -10.275
REMARK INTER:                 -10.511
REMARK INTRA:                   0.236
REMARK UNBOUND:                 1.553
REMARK  Name = ZINC000000265501
REMARK  2 active torsions:
REMARK  status: ('A' for Active; 'I' for Inactive)
REMARK    1  A    between atoms: C_1  and  N_2
REMARK    2  A    between atoms: C_3  and  C_4
REMARK                            x       y       z     vdW  Elec       q    Type
REMARK                         _______ _______ _______ _____ _____    ______ ____
ROOT
ATOM      1  C   UNL     1      -0.302   1.368 -22.001  0.00  0.00    +0.149 C 
ATOM      2  N   UNL     1       0.242   2.453 -22.467  0.00  0.00    -0.343 N 
ATOM      3  C   UNL     1      -0.482   3.518 -22.645  0.00  0.00    +0.053 A 
ATOM      4  C   UNL     1       0.062   4.603 -23.111  0.00  0.00    +0.077 A 
ATOM      5  C   UNL     1       1.330   4.622 -23.399  0.00  0.00    +0.190 A 
ATOM      6  C   UNL     1       2.053   3.557 -23.221  0.00  0.00    +0.045 A 
ATOM      7  C   UNL     1       3.321   3.576 -23.509  0.00  0.00    +0.014 A 
ATOM      8  C   UNL     1       4.045   2.510 -23.330  0.00  0.00    +0.001 A 
ATOM      9  C   UNL     1       3.500   1.426 -22.864  0.00  0.00    +0.002 A 
ATOM     10  C   UNL     1       2.232   1.407 -22.576  0.00  0.00    +0.026 A 
ATOM     11  O   UNL     1       1.875   5.707 -23.865  0.00  0.00    -0.287 OA
ATOM     12  C   UNL     1       1.509   2.472 -22.755  0.00  0.00    +0.053 A 
ENDROOT
BRANCH   3  13
ATOM     13  C   UNL     1      -1.750   3.498 -22.357  0.00  0.00    +0.002 A 
ATOM     14  C   UNL     1      -2.134   3.449 -21.116  0.00  0.00    +0.014 A 
ATOM     15  C   UNL     1      -3.402   3.429 -20.829  0.00  0.00    +0.050 A 
ATOM     16  C   UNL     1      -4.285   3.458 -21.783  0.00  0.00    +0.166 A 
ATOM     17  C   UNL     1      -3.901   3.507 -23.024  0.00  0.00    +0.167 A 
ATOM     18  O   UNL     1      -4.962   3.527 -23.773  0.00  0.00    -0.453 OA
ATOM     19  C   UNL     1      -6.004   3.490 -22.996  0.00  0.00    +0.466 C 
ATOM     20  O   UNL     1      -5.584   3.448 -21.765  0.00  0.00    -0.453 OA
ATOM     21  C   UNL     1      -2.632   3.527 -23.311  0.00  0.00    +0.059 A 
ENDBRANCH   3  13
TORSDOF 1
ENDMDL
MODEL 5
REMARK VINA RESULT:   -11.174      1.633      6.589
REMARK INTER + INTRA:         -10.275
REMARK INTER:                 -10.513
REMARK INTRA:                   0.238
REMARK UNBOUND:                 1.553
REMARK  Name = ZINC000000265501
REMARK  2 active torsions:
REMARK  status: ('A' for Active; 'I' for Inactive)
REMARK    1  A    between atoms: C_1  and  N_2
REMARK    2  A    between atoms: C_3  and  C_4
REMARK                            x       y       z     vdW  Elec       q    Type
REMARK                         _______ _______ _______ _____ _____    ______ ____
ROOT
ATOM      1  C   UNL     1       0.066   4.900 -23.033  0.00  0.00    +0.149 C 
ATOM      2  N   UNL     1       0.548   3.713 -22.814  0.00  0.00    -0.343 N 
ATOM      3  C   UNL     1      -0.245   2.744 -22.463  0.00  0.00    +0.053 A 
ATOM      4  C   UNL     1       0.237   1.556 -22.244  0.00  0.00    +0.077 A 
ATOM      5  C   UNL     1       1.512   1.338 -22.378  0.00  0.00    +0.190 A 
ATOM      6  C   UNL     1       2.304   2.306 -22.729  0.00  0.00    +0.045 A 
ATOM      7  C   UNL     1       3.579   2.088 -22.862  0.00  0.00    +0.014 A 
ATOM      8  C   UNL     1       4.372   3.057 -23.214  0.00  0.00    +0.001 A 
ATOM      9  C   UNL     1       3.890   4.244 -23.433  0.00  0.00    +0.002 A 
ATOM     10  C   UNL     1       2.615   4.462 -23.299  0.00  0.00    +0.026 A 
ATOM     11  O   UNL     1       1.994   0.150 -22.159  0.00  0.00    -0.287 OA
ATOM     12  C   UNL     1       1.822   3.494 -22.948  0.00  0.00    +0.053 A 
ENDROOT
BRANCH   3  13
ATOM     13  C   UNL     1      -1.519   2.963 -22.330  0.00  0.00    +0.002 A 
ATOM     14  C   UNL     1      -2.058   2.974 -21.147  0.00  0.00    +0.014 A 
ATOM     15  C   UNL     1      -3.332   3.193 -21.014  0.00  0.00    +0.050 A 
ATOM     16  C   UNL     1      -4.068   3.403 -22.066  0.00  0.00    +0.166 A 
ATOM     17  C   UNL     1      -3.530   3.393 -23.249  0.00  0.00    +0.167 A 
ATOM     18  O   UNL     1      -4.466   3.625 -24.119  0.00  0.00    -0.453 OA
ATOM     19  C   UNL     1      -5.585   3.779 -23.474  0.00  0.00    +0.466 C 
ATOM     20  O   UNL     1      -5.338   3.642 -22.204  0.00  0.00    -0.453 OA
ATOM     21  C   UNL     1      -2.255   3.173 -23.381  0.00  0.00    +0.059 A 
ENDBRANCH   3  13
TORSDOF 1
ENDMDL
MODEL 6
REMARK VINA RESULT:   -10.132      2.721      6.847
REMARK INTER + INTRA:          -9.171
REMARK INTER:                  -9.281
REMARK INTRA:                   0.110
REMARK UNBOUND:                 1.553
REMARK  Name = ZINC000000265501
REMARK  2 active torsions:
REMARK  status: ('A' for Active; 'I' for Inactive)
REMARK    1  A    between atoms: C_1  and  N_2
REMARK    2  A    between atoms: C_3  and  C_4
REMARK                            x       y       z     vdW  Elec       q    Type
REMARK                         _______ _______ _______ _____ _____    ______ ____
ROOT
ATOM      1  C   UNL     1       2.378   1.921 -24.071  0.00  0.00    +0.149 C 
ATOM      2  N   UNL     1       2.632   3.135 -23.680  0.00  0.00    -0.343 N 
ATOM      3  C   UNL     1       1.658   3.981 -23.514  0.00  0.00    +0.053 A 
ATOM      4  C   UNL     1       1.912   5.195 -23.124  0.00  0.00    +0.077 A 
ATOM      5  C   UNL     1       3.139   5.562 -22.900  0.00  0.00    +0.190 A 
ATOM      6  C   UNL     1       4.112   4.717 -23.067  0.00  0.00    +0.045 A 
ATOM      7  C   UNL     1       5.338   5.084 -22.843  0.00  0.00    +0.014 A 
ATOM      8  C   UNL     1       6.311   4.238 -23.009  0.00  0.00    +0.001 A 
ATOM      9  C   UNL     1       6.058   3.024 -23.399  0.00  0.00    +0.002 A 
ATOM     10  C   UNL     1       4.831   2.657 -23.623  0.00  0.00    +0.026 A 
ATOM     11  O   UNL     1       3.392   6.776 -22.510  0.00  0.00    -0.287 OA
ATOM     12  C   UNL     1       3.858   3.503 -23.457  0.00  0.00    +0.053 A 
ENDROOT
BRANCH   3  13
ATOM     13  C   UNL     1       0.432   3.612 -23.738  0.00  0.00    +0.002 A 
ATOM     14  C   UNL     1      -0.260   3.045 -22.795  0.00  0.00    +0.014 A 
ATOM     15  C   UNL     1      -1.486   2.676 -23.020  0.00  0.00    +0.050 A 
ATOM     16  C   UNL     1      -2.021   2.875 -24.189  0.00  0.00    +0.166 A 
ATOM     17  C   UNL     1      -1.329   3.442 -25.132  0.00  0.00    +0.167 A 
ATOM     18  O   UNL     1      -2.081   3.525 -26.188  0.00  0.00    -0.453 OA
ATOM     19  C   UNL     1      -3.239   3.008 -25.899  0.00  0.00    +0.466 C 
ATOM     20  O   UNL     1      -3.201   2.607 -24.662  0.00  0.00    -0.453 OA
ATOM     21  C   UNL     1      -0.102   3.811 -24.907  0.00  0.00    +0.059 A 
ENDBRANCH   3  13
TORSDOF 1
ENDMDL
MODEL 7
REMARK VINA RESULT:    -9.149      3.046      4.947
REMARK INTER + INTRA:          -8.132
REMARK INTER:                  -8.327
REMARK INTRA:                   0.196
REMARK UNBOUND:                 1.553
REMARK  Name = ZINC000000265501
REMARK  2 active torsions:
REMARK  status: ('A' for Active; 'I' for Inactive)
REMARK    1  A    between atoms: C_1  and  N_2
REMARK    2  A    between atoms: C_3  and  C_4
REMARK                            x       y       z     vdW  Elec       q    Type
REMARK                         _______ _______ _______ _____ _____    ______ ____
ROOT
ATOM      1  C   UNL     1       3.436   2.075 -21.495  0.00  0.00    +0.149 C 
ATOM      2  N   UNL     1       2.620   2.674 -22.310  0.00  0.00    -0.343 N 
ATOM      3  C   UNL     1       3.074   3.556 -23.152  0.00  0.00    +0.053 A 
ATOM      4  C   UNL     1       2.258   4.156 -23.968  0.00  0.00    +0.077 A 
ATOM      5  C   UNL     1       0.989   3.874 -23.941  0.00  0.00    +0.190 A 
ATOM      6  C   UNL     1       0.536   2.993 -23.100  0.00  0.00    +0.045 A 
ATOM      7  C   UNL     1      -0.733   2.712 -23.074  0.00  0.00    +0.014 A 
ATOM      8  C   UNL     1      -1.186   1.831 -22.232  0.00  0.00    +0.001 A 
ATOM      9  C   UNL     1      -0.371   1.231 -21.416  0.00  0.00    +0.002 A 
ATOM     10  C   UNL     1       0.899   1.513 -21.443  0.00  0.00    +0.026 A 
ATOM     11  O   UNL     1       0.173   4.474 -24.757  0.00  0.00    -0.287 OA
ATOM     12  C   UNL     1       1.352   2.393 -22.284  0.00  0.00    +0.053 A 
ENDROOT
BRANCH   3  13
ATOM     13  C   UNL     1       4.343   3.836 -23.178  0.00  0.00    +0.002 A 
ATOM     14  C   UNL     1       5.186   2.994 -23.697  0.00  0.00    +0.014 A 
ATOM     15  C   UNL     1       6.454   3.275 -23.722  0.00  0.00    +0.050 A 
ATOM     16  C   UNL     1       6.881   4.400 -23.228  0.00  0.00    +0.166 A 
ATOM     17  C   UNL     1       6.039   5.243 -22.709  0.00  0.00    +0.167 A 
ATOM     18  O   UNL     1       6.708   6.274 -22.291  0.00  0.00    -0.453 OA
ATOM     19  C   UNL     1       7.966   6.070 -22.551  0.00  0.00    +0.466 C 
ATOM     20  O   UNL     1       8.072   4.911 -23.131  0.00  0.00    -0.453 OA
ATOM     21  C   UNL     1       4.769   4.961 -22.684  0.00  0.00    +0.059 A 
ENDBRANCH   3  13
TORSDOF 1
ENDMDL
