MODEL 1
REMARK VINA RESULT:    -8.437      0.000      0.000
REMARK INTER + INTRA:          -8.683
REMARK INTER:                  -8.683
REMARK INTRA:                   0.000
REMARK UNBOUND:                 0.000
REMARK  Name = ZINC000000265484
REMARK  1 active torsions:
REMARK  status: ('A' for Active; 'I' for Inactive)
REMARK    1  A    between atoms: C_14  and  O_15
REMARK                            x       y       z     vdW  Elec       q    Type
REMARK                         _______ _______ _______ _____ _____    ______ ____
ROOT
ATOM      1  O   UNL     1      -1.869   3.711 -25.178  0.00  0.00    -0.267 OA
ATOM      2  C   UNL     1      -2.003   3.243 -23.972  0.00  0.00    +0.262 A 
ATOM      3  C   UNL     1      -3.167   3.261 -23.394  0.00  0.00    +0.065 A 
ATOM      4  C   UNL     1      -4.197   3.746 -24.021  0.00  0.00    +0.015 A 
ATOM      5  C   UNL     1      -5.361   3.764 -23.442  0.00  0.00    +0.001 A 
ATOM      6  C   UNL     1      -5.495   3.296 -22.237  0.00  0.00    +0.002 A 
ATOM      7  C   UNL     1      -4.465   2.811 -21.610  0.00  0.00    +0.028 A 
ATOM      8  C   UNL     1      -3.300   2.793 -22.188  0.00  0.00    +0.078 A 
ATOM      9  N   UNL     1      -2.270   2.308 -21.561  0.00  0.00    -0.231 NA
ATOM     10  C   UNL     1      -1.107   2.290 -22.140  0.00  0.00    +0.142 A 
ATOM     11  C   UNL     1       0.057   1.869 -21.741  0.00  0.00    +0.182 C 
ATOM     12  C   UNL     1       0.910   2.077 -22.700  0.00  0.00    +0.061 C 
ATOM     13  C   UNL     1       0.274   2.626 -23.691  0.00  0.00    +0.129 C 
ATOM     14  N   UNL     1      -0.973   2.758 -23.345  0.00  0.00    -0.294 N 
ENDROOT
BRANCH  11  15
ATOM     15  O   UNL     1       0.321   1.335 -20.586  0.00  0.00    -0.384 OA
ATOM     16  H   UNL     1      -0.508   1.096 -20.142  0.00  0.00    +0.210 HD
ENDBRANCH  11  15
TORSDOF 1
ENDMDL
MODEL 2
REMARK VINA RESULT:    -8.094      1.621      4.879
REMARK INTER + INTRA:          -8.330
REMARK INTER:                  -8.330
REMARK INTRA:                   0.000
REMARK UNBOUND:                 0.000
REMARK  Name = ZINC000000265484
REMARK  1 active torsions:
REMARK  status: ('A' for Active; 'I' for Inactive)
REMARK    1  A    between atoms: C_14  and  O_15
REMARK                            x       y       z     vdW  Elec       q    Type
REMARK                         _______ _______ _______ _____ _____    ______ ____
ROOT
ATOM      1  O   UNL     1      -3.654   2.569 -20.940  0.00  0.00    -0.267 OA
ATOM      2  C   UNL     1      -3.137   2.824 -22.105  0.00  0.00    +0.262 A 
ATOM      3  C   UNL     1      -1.879   2.583 -22.325  0.00  0.00    +0.065 A 
ATOM      4  C   UNL     1      -1.137   2.087 -21.380  0.00  0.00    +0.015 A 
ATOM      5  C   UNL     1       0.121   1.846 -21.600  0.00  0.00    +0.001 A 
ATOM      6  C   UNL     1       0.637   2.101 -22.765  0.00  0.00    +0.002 A 
ATOM      7  C   UNL     1      -0.104   2.598 -23.710  0.00  0.00    +0.028 A 
ATOM      8  C   UNL     1      -1.363   2.839 -23.490  0.00  0.00    +0.078 A 
ATOM      9  N   UNL     1      -2.104   3.335 -24.436  0.00  0.00    -0.231 NA
ATOM     10  C   UNL     1      -3.362   3.576 -24.215  0.00  0.00    +0.142 A 
ATOM     11  C   UNL     1      -4.301   4.060 -24.973  0.00  0.00    +0.182 C 
ATOM     12  C   UNL     1      -5.398   4.103 -24.276  0.00  0.00    +0.061 C 
ATOM     13  C   UNL     1      -5.137   3.647 -23.088  0.00  0.00    +0.129 C 
ATOM     14  N   UNL     1      -3.879   3.321 -23.050  0.00  0.00    -0.294 N 
ENDROOT
BRANCH  11  15
ATOM     15  O   UNL     1      -4.167   4.434 -26.211  0.00  0.00    -0.384 OA
ATOM     16  H   UNL     1      -3.505   3.876 -26.648  0.00  0.00    +0.210 HD
ENDBRANCH  11  15
TORSDOF 1
ENDMDL
MODEL 3
REMARK VINA RESULT:    -8.054      1.199      2.641
REMARK INTER + INTRA:          -8.290
REMARK INTER:                  -8.290
REMARK INTRA:                   0.000
REMARK UNBOUND:                 0.000
REMARK  Name = ZINC000000265484
REMARK  1 active torsions:
REMARK  status: ('A' for Active; 'I' for Inactive)
REMARK    1  A    between atoms: C_14  and  O_15
REMARK                            x       y       z     vdW  Elec       q    Type
REMARK                         _______ _______ _______ _____ _____    ______ ____
ROOT
ATOM      1  O   UNL     1      -2.008   2.328 -20.912  0.00  0.00    -0.267 OA
ATOM      2  C   UNL     1      -2.088   2.701 -22.155  0.00  0.00    +0.262 A 
ATOM      3  C   UNL     1      -3.230   3.080 -22.648  0.00  0.00    +0.065 A 
ATOM      4  C   UNL     1      -4.292   3.086 -21.898  0.00  0.00    +0.015 A 
ATOM      5  C   UNL     1      -5.433   3.466 -22.391  0.00  0.00    +0.001 A 
ATOM      6  C   UNL     1      -5.512   3.838 -23.634  0.00  0.00    +0.002 A 
ATOM      7  C   UNL     1      -4.451   3.832 -24.384  0.00  0.00    +0.028 A 
ATOM      8  C   UNL     1      -3.309   3.453 -23.891  0.00  0.00    +0.078 A 
ATOM      9  N   UNL     1      -2.247   3.446 -24.641  0.00  0.00    -0.231 NA
ATOM     10  C   UNL     1      -1.106   3.067 -24.148  0.00  0.00    +0.142 A 
ATOM     11  C   UNL     1       0.080   2.970 -24.672  0.00  0.00    +0.182 C 
ATOM     12  C   UNL     1       0.892   2.538 -23.754  0.00  0.00    +0.061 C 
ATOM     13  C   UNL     1       0.209   2.367 -22.662  0.00  0.00    +0.129 C 
ATOM     14  N   UNL     1      -1.026   2.694 -22.905  0.00  0.00    -0.294 N 
ENDROOT
BRANCH  11  15
ATOM     15  O   UNL     1       0.397   3.256 -25.901  0.00  0.00    -0.384 OA
ATOM     16  H   UNL     1       0.843   4.117 -25.928  0.00  0.00    +0.210 HD
ENDBRANCH  11  15
TORSDOF 1
ENDMDL
MODEL 4
REMARK VINA RESULT:    -8.012      1.807      4.284
REMARK INTER + INTRA:          -8.246
REMARK INTER:                  -8.246
REMARK INTRA:                   0.000
REMARK UNBOUND:                 0.000
REMARK  Name = ZINC000000265484
REMARK  1 active torsions:
REMARK  status: ('A' for Active; 'I' for Inactive)
REMARK    1  A    between atoms: C_14  and  O_15
REMARK                            x       y       z     vdW  Elec       q    Type
REMARK                         _______ _______ _______ _____ _____    ______ ____
ROOT
ATOM      1  O   UNL     1      -1.204   3.708 -25.509  0.00  0.00    -0.267 OA
ATOM      2  C   UNL     1      -1.828   3.405 -24.409  0.00  0.00    +0.262 A 
ATOM      3  C   UNL     1      -1.188   2.823 -23.439  0.00  0.00    +0.065 A 
ATOM      4  C   UNL     1       0.075   2.544 -23.567  0.00  0.00    +0.015 A 
ATOM      5  C   UNL     1       0.714   1.962 -22.597  0.00  0.00    +0.001 A 
ATOM      6  C   UNL     1       0.091   1.659 -21.497  0.00  0.00    +0.002 A 
ATOM      7  C   UNL     1      -1.172   1.937 -21.369  0.00  0.00    +0.028 A 
ATOM      8  C   UNL     1      -1.813   2.519 -22.340  0.00  0.00    +0.078 A 
ATOM      9  N   UNL     1      -3.076   2.798 -22.211  0.00  0.00    -0.231 NA
ATOM     10  C   UNL     1      -3.715   3.380 -23.181  0.00  0.00    +0.142 A 
ATOM     11  C   UNL     1      -4.952   3.758 -23.305  0.00  0.00    +0.182 C 
ATOM     12  C   UNL     1      -5.093   4.296 -24.480  0.00  0.00    +0.061 C 
ATOM     13  C   UNL     1      -3.943   4.250 -25.083  0.00  0.00    +0.129 C 
ATOM     14  N   UNL     1      -3.091   3.683 -24.281  0.00  0.00    -0.294 N 
ENDROOT
BRANCH  11  15
ATOM     15  O   UNL     1      -5.885   3.623 -22.409  0.00  0.00    -0.384 OA
ATOM     16  H   UNL     1      -6.239   2.721 -22.444  0.00  0.00    +0.210 HD
ENDBRANCH  11  15
TORSDOF 1
ENDMDL
MODEL 5
REMARK VINA RESULT:    -7.785      1.590      4.696
REMARK INTER + INTRA:          -8.012
REMARK INTER:                  -8.012
REMARK INTRA:                   0.000
REMARK UNBOUND:                 0.000
REMARK  Name = ZINC000000265484
REMARK  1 active torsions:
REMARK  status: ('A' for Active; 'I' for Inactive)
REMARK    1  A    between atoms: C_14  and  O_15
REMARK                            x       y       z     vdW  Elec       q    Type
REMARK                         _______ _______ _______ _____ _____    ______ ____
ROOT
ATOM      1  O   UNL     1      -1.079   1.940 -21.100  0.00  0.00    -0.267 OA
ATOM      2  C   UNL     1      -1.689   2.502 -22.101  0.00  0.00    +0.262 A 
ATOM      3  C   UNL     1      -1.020   2.832 -23.166  0.00  0.00    +0.065 A 
ATOM      4  C   UNL     1       0.257   2.601 -23.230  0.00  0.00    +0.015 A 
ATOM      5  C   UNL     1       0.925   2.931 -24.295  0.00  0.00    +0.001 A 
ATOM      6  C   UNL     1       0.315   3.493 -25.296  0.00  0.00    +0.002 A 
ATOM      7  C   UNL     1      -0.962   3.724 -25.233  0.00  0.00    +0.028 A 
ATOM      8  C   UNL     1      -1.631   3.394 -24.167  0.00  0.00    +0.078 A 
ATOM      9  N   UNL     1      -2.908   3.625 -24.104  0.00  0.00    -0.231 NA
ATOM     10  C   UNL     1      -3.576   3.295 -23.039  0.00  0.00    +0.142 A 
ATOM     11  C   UNL     1      -4.832   3.413 -22.728  0.00  0.00    +0.182 C 
ATOM     12  C   UNL     1      -5.000   2.925 -21.534  0.00  0.00    +0.061 C 
ATOM     13  C   UNL     1      -3.846   2.505 -21.108  0.00  0.00    +0.129 C 
ATOM     14  N   UNL     1      -2.966   2.733 -22.037  0.00  0.00    -0.294 N 
ENDROOT
BRANCH  11  15
ATOM     15  O   UNL     1      -5.760   3.930 -23.479  0.00  0.00    -0.384 OA
ATOM     16  H   UNL     1      -5.922   3.350 -24.239  0.00  0.00    +0.210 HD
ENDBRANCH  11  15
TORSDOF 1
ENDMDL
MODEL 6
REMARK VINA RESULT:    -7.694      2.024      4.206
REMARK INTER + INTRA:          -7.919
REMARK INTER:                  -7.919
REMARK INTRA:                   0.000
REMARK UNBOUND:                 0.000
REMARK  Name = ZINC000000265484
REMARK  1 active torsions:
REMARK  status: ('A' for Active; 'I' for Inactive)
REMARK    1  A    between atoms: C_14  and  O_15
REMARK                            x       y       z     vdW  Elec       q    Type
REMARK                         _______ _______ _______ _____ _____    ______ ____
ROOT
ATOM      1  O   UNL     1      -3.032   3.063 -25.407  0.00  0.00    -0.267 OA
ATOM      2  C   UNL     1      -2.453   3.443 -24.307  0.00  0.00    +0.262 A 
ATOM      3  C   UNL     1      -1.194   3.768 -24.314  0.00  0.00    +0.065 A 
ATOM      4  C   UNL     1      -0.514   3.713 -25.421  0.00  0.00    +0.015 A 
ATOM      5  C   UNL     1       0.744   4.038 -25.428  0.00  0.00    +0.001 A 
ATOM      6  C   UNL     1       1.323   4.419 -24.328  0.00  0.00    +0.002 A 
ATOM      7  C   UNL     1       0.644   4.474 -23.221  0.00  0.00    +0.028 A 
ATOM      8  C   UNL     1      -0.615   4.148 -23.214  0.00  0.00    +0.078 A 
ATOM      9  N   UNL     1      -1.295   4.204 -22.107  0.00  0.00    -0.231 NA
ATOM     10  C   UNL     1      -2.553   3.878 -22.100  0.00  0.00    +0.142 A 
ATOM     11  C   UNL     1      -3.438   3.847 -21.149  0.00  0.00    +0.182 C 
ATOM     12  C   UNL     1      -4.565   3.448 -21.661  0.00  0.00    +0.061 C 
ATOM     13  C   UNL     1      -4.376   3.232 -22.928  0.00  0.00    +0.129 C 
ATOM     14  N   UNL     1      -3.132   3.498 -23.200  0.00  0.00    -0.294 N 
ENDROOT
BRANCH  11  15
ATOM     15  O   UNL     1      -3.234   4.161 -19.904  0.00  0.00    -0.384 OA
ATOM     16  H   UNL     1      -3.266   5.125 -19.803  0.00  0.00    +0.210 HD
ENDBRANCH  11  15
TORSDOF 1
ENDMDL
MODEL 7
REMARK VINA RESULT:    -7.647      2.385      3.025
REMARK INTER + INTRA:          -7.870
REMARK INTER:                  -7.870
REMARK INTRA:                   0.000
REMARK UNBOUND:                 0.000
REMARK  Name = ZINC000000265484
REMARK  1 active torsions:
REMARK  status: ('A' for Active; 'I' for Inactive)
REMARK    1  A    between atoms: C_14  and  O_15
REMARK                            x       y       z     vdW  Elec       q    Type
REMARK                         _______ _______ _______ _____ _____    ______ ____
ROOT
ATOM      1  O   UNL     1       0.761   5.196 -23.681  0.00  0.00    -0.267 OA
ATOM      2  C   UNL     1       0.641   3.972 -23.259  0.00  0.00    +0.262 A 
ATOM      3  C   UNL     1      -0.428   3.609 -22.613  0.00  0.00    +0.065 A 
ATOM      4  C   UNL     1      -1.375   4.469 -22.389  0.00  0.00    +0.015 A 
ATOM      5  C   UNL     1      -2.443   4.106 -21.744  0.00  0.00    +0.001 A 
ATOM      6  C   UNL     1      -2.563   2.882 -21.322  0.00  0.00    +0.002 A 
ATOM      7  C   UNL     1      -1.616   2.022 -21.546  0.00  0.00    +0.028 A 
ATOM      8  C   UNL     1      -0.547   2.385 -22.192  0.00  0.00    +0.078 A 
ATOM      9  N   UNL     1       0.401   1.524 -22.416  0.00  0.00    -0.231 NA
ATOM     10  C   UNL     1       1.469   1.887 -23.062  0.00  0.00    +0.142 A 
ATOM     11  C   UNL     1       2.539   1.236 -23.410  0.00  0.00    +0.182 C 
ATOM     12  C   UNL     1       3.320   2.058 -24.046  0.00  0.00    +0.061 C 
ATOM     13  C   UNL     1       2.733   3.216 -24.092  0.00  0.00    +0.129 C 
ATOM     14  N   UNL     1       1.589   3.111 -23.483  0.00  0.00    -0.294 N 
ENDROOT
BRANCH  11  15
ATOM     15  O   UNL     1       2.785  -0.017 -23.164  0.00  0.00    -0.384 OA
ATOM     16  H   UNL     1       2.224  -0.319 -22.432  0.00  0.00    +0.210 HD
ENDBRANCH  11  15
TORSDOF 1
ENDMDL
MODEL 8
REMARK VINA RESULT:    -7.597      2.552      4.116
REMARK INTER + INTRA:          -7.819
REMARK INTER:                  -7.819
REMARK INTRA:                   0.000
REMARK UNBOUND:                 0.000
REMARK  Name = ZINC000000265484
REMARK  1 active torsions:
REMARK  status: ('A' for Active; 'I' for Inactive)
REMARK    1  A    between atoms: C_14  and  O_15
REMARK                            x       y       z     vdW  Elec       q    Type
REMARK                         _______ _______ _______ _____ _____    ______ ____
ROOT
ATOM      1  O   UNL     1       0.591   1.190 -20.224  0.00  0.00    -0.267 OA
ATOM      2  C   UNL     1       0.797   1.508 -21.467  0.00  0.00    +0.262 A 
ATOM      3  C   UNL     1      -0.154   2.056 -22.165  0.00  0.00    +0.065 A 
ATOM      4  C   UNL     1      -1.311   2.285 -21.618  0.00  0.00    +0.015 A 
ATOM      5  C   UNL     1      -2.261   2.832 -22.316  0.00  0.00    +0.001 A 
ATOM      6  C   UNL     1      -2.055   3.150 -23.559  0.00  0.00    +0.002 A 
ATOM      7  C   UNL     1      -0.898   2.920 -24.105  0.00  0.00    +0.028 A 
ATOM      8  C   UNL     1       0.053   2.373 -23.408  0.00  0.00    +0.078 A 
ATOM      9  N   UNL     1       1.210   2.144 -23.954  0.00  0.00    -0.231 NA
ATOM     10  C   UNL     1       2.161   1.596 -23.257  0.00  0.00    +0.142 A 
ATOM     11  C   UNL     1       3.382   1.268 -23.557  0.00  0.00    +0.182 C 
ATOM     12  C   UNL     1       3.930   0.747 -22.500  0.00  0.00    +0.061 C 
ATOM     13  C   UNL     1       3.048   0.754 -21.546  0.00  0.00    +0.129 C 
ATOM     14  N   UNL     1       1.954   1.279 -22.013  0.00  0.00    -0.294 N 
ENDROOT
BRANCH  11  15
ATOM     15  O   UNL     1       3.955   1.432 -24.713  0.00  0.00    -0.384 OA
ATOM     16  H   UNL     1       4.072   0.569 -25.141  0.00  0.00    +0.210 HD
ENDBRANCH  11  15
TORSDOF 1
ENDMDL
MODEL 9
REMARK VINA RESULT:    -7.362      2.139      3.841
REMARK INTER + INTRA:          -7.577
REMARK INTER:                  -7.577
REMARK INTRA:                   0.000
REMARK UNBOUND:                 0.000
REMARK  Name = ZINC000000265484
REMARK  1 active torsions:
REMARK  status: ('A' for Active; 'I' for Inactive)
REMARK    1  A    between atoms: C_14  and  O_15
REMARK                            x       y       z     vdW  Elec       q    Type
REMARK                         _______ _______ _______ _____ _____    ______ ____
ROOT
ATOM      1  O   UNL     1      -0.532   3.683 -23.371  0.00  0.00    -0.267 OA
ATOM      2  C   UNL     1      -1.826   3.573 -23.425  0.00  0.00    +0.262 A 
ATOM      3  C   UNL     1      -2.523   3.556 -22.327  0.00  0.00    +0.065 A 
ATOM      4  C   UNL     1      -1.926   3.648 -21.177  0.00  0.00    +0.015 A 
ATOM      5  C   UNL     1      -2.623   3.630 -20.080  0.00  0.00    +0.001 A 
ATOM      6  C   UNL     1      -3.917   3.520 -20.134  0.00  0.00    +0.002 A 
ATOM      7  C   UNL     1      -4.514   3.428 -21.285  0.00  0.00    +0.028 A 
ATOM      8  C   UNL     1      -3.817   3.446 -22.383  0.00  0.00    +0.078 A 
ATOM      9  N   UNL     1      -4.414   3.353 -23.533  0.00  0.00    -0.231 NA
ATOM     10  C   UNL     1      -3.717   3.371 -24.630  0.00  0.00    +0.142 A 
ATOM     11  C   UNL     1      -4.062   3.296 -25.881  0.00  0.00    +0.182 C 
ATOM     12  C   UNL     1      -2.981   3.360 -26.600  0.00  0.00    +0.061 C 
ATOM     13  C   UNL     1      -1.968   3.474 -25.794  0.00  0.00    +0.129 C 
ATOM     14  N   UNL     1      -2.423   3.481 -24.576  0.00  0.00    -0.294 N 
ENDROOT
BRANCH  11  15
ATOM     15  O   UNL     1      -5.275   3.178 -26.334  0.00  0.00    -0.384 OA
ATOM     16  H   UNL     1      -5.688   2.388 -25.952  0.00  0.00    +0.210 HD
ENDBRANCH  11  15
TORSDOF 1
ENDMDL
