MODEL 1
REMARK VINA RESULT:    -9.999      0.000      0.000
REMARK INTER + INTRA:          -9.042
REMARK INTER:                 -10.878
REMARK INTRA:                   1.836
REMARK UNBOUND:                 1.833
REMARK  Name = ZINC000004104704
REMARK  6 active torsions:
REMARK  status: ('A' for Active; 'I' for Inactive)
REMARK    1  A    between atoms: C_1  and  C_2
REMARK    2  A    between atoms: C_5  and  O_6
REMARK    3  A    between atoms: C_7  and  C_8
REMARK    4  A    between atoms: C_8  and  O_9
REMARK    5  A    between atoms: C_15  and  C_16
REMARK    6  A    between atoms: C_15  and  C_17
REMARK                            x       y       z     vdW  Elec       q    Type
REMARK                         _______ _______ _______ _____ _____    ______ ____
ROOT
ATOM      1  C   UNL     1      -3.706   2.501 -21.008  0.00  0.00    +0.008 C 
ATOM      2  C   UNL     1      -3.984   3.005 -22.174  0.00  0.00    -0.010 C 
ATOM      3  C   UNL     1      -5.199   3.378 -22.447  0.00  0.00    +0.006 C 
ATOM      4  C   UNL     1      -5.477   3.882 -23.613  0.00  0.00    +0.032 C 
ATOM      5  C   UNL     1      -4.541   4.014 -24.505  0.00  0.00    +0.123 C 
ATOM      6  C   UNL     1      -3.326   3.641 -24.232  0.00  0.00    +0.023 C 
ATOM      7  C   UNL     1      -2.389   3.772 -25.124  0.00  0.00    +0.012 C 
ATOM      8  C   UNL     1      -1.174   3.399 -24.850  0.00  0.00    +0.005 C 
ATOM      9  C   UNL     1      -0.896   2.895 -23.685  0.00  0.00    -0.001 C 
ATOM     10  C   UNL     1      -1.832   2.764 -22.793  0.00  0.00    +0.003 C 
ATOM     11  C   UNL     1      -0.617   2.391 -22.519  0.00  0.00    -0.028 C 
ATOM     12  C   UNL     1       0.655   2.166 -22.669  0.00  0.00    +0.011 C 
ATOM     13  C   UNL     1      -0.780   1.965 -21.302  0.00  0.00    +0.011 C 
ATOM     14  C   UNL     1      -3.047   3.137 -23.066  0.00  0.00    +0.007 C 
ENDROOT
BRANCH   5  15
ATOM     15  O   UNL     1      -4.819   4.518 -25.671  0.00  0.00    -0.391 OA
ATOM     16  H   UNL     1      -4.771   3.821 -26.343  0.00  0.00    +0.210 HD
ENDBRANCH   5  15
BRANCH   6  17
ATOM     17  C   UNL     1      -3.604   4.145 -25.397  0.00  0.00    +0.165 C 
BRANCH  17  18
ATOM     18  O   UNL     1      -4.081   5.351 -25.487  0.00  0.00    -0.394 OA
ATOM     19  H   UNL     1      -3.353   5.977 -25.630  0.00  0.00    +0.209 HD
ENDBRANCH  17  18
ENDBRANCH   6  17
TORSDOF 3
ENDMDL
MODEL 2
REMARK VINA RESULT:    -9.331      1.375      2.822
REMARK INTER + INTRA:          -8.316
REMARK INTER:                 -10.604
REMARK INTRA:                   2.288
REMARK UNBOUND:                 1.833
REMARK  Name = ZINC000004104704
REMARK  6 active torsions:
REMARK  status: ('A' for Active; 'I' for Inactive)
REMARK    1  A    between atoms: C_1  and  C_2
REMARK    2  A    between atoms: C_5  and  O_6
REMARK    3  A    between atoms: C_7  and  C_8
REMARK    4  A    between atoms: C_8  and  O_9
REMARK    5  A    between atoms: C_15  and  C_16
REMARK    6  A    between atoms: C_15  and  C_17
REMARK                            x       y       z     vdW  Elec       q    Type
REMARK                         _______ _______ _______ _____ _____    ______ ____
ROOT
ATOM      1  C   UNL     1      -1.547   3.597 -25.338  0.00  0.00    +0.008 C 
ATOM      2  C   UNL     1      -2.647   3.636 -24.646  0.00  0.00    -0.010 C 
ATOM      3  C   UNL     1      -3.734   4.107 -25.181  0.00  0.00    +0.006 C 
ATOM      4  C   UNL     1      -4.834   4.147 -24.489  0.00  0.00    +0.032 C 
ATOM      5  C   UNL     1      -4.847   3.716 -23.263  0.00  0.00    +0.123 C 
ATOM      6  C   UNL     1      -3.760   3.246 -22.728  0.00  0.00    +0.023 C 
ATOM      7  C   UNL     1      -3.772   2.815 -21.501  0.00  0.00    +0.012 C 
ATOM      8  C   UNL     1      -2.685   2.345 -20.966  0.00  0.00    +0.005 C 
ATOM      9  C   UNL     1      -1.585   2.305 -21.658  0.00  0.00    -0.001 C 
ATOM     10  C   UNL     1      -1.572   2.735 -22.885  0.00  0.00    +0.003 C 
ATOM     11  C   UNL     1      -0.485   2.265 -22.350  0.00  0.00    -0.028 C 
ATOM     12  C   UNL     1       0.318   1.745 -21.468  0.00  0.00    +0.011 C 
ATOM     13  C   UNL     1       0.337   2.405 -23.347  0.00  0.00    +0.011 C 
ATOM     14  C   UNL     1      -2.659   3.206 -23.419  0.00  0.00    +0.007 C 
ENDROOT
BRANCH   5  15
ATOM     15  O   UNL     1      -5.947   3.756 -22.571  0.00  0.00    -0.391 OA
ATOM     16  H   UNL     1      -6.390   2.896 -22.620  0.00  0.00    +0.210 HD
ENDBRANCH   5  15
BRANCH   6  17
ATOM     17  C   UNL     1      -4.860   3.286 -22.036  0.00  0.00    +0.165 C 
BRANCH  17  18
ATOM     18  O   UNL     1      -5.944   3.769 -22.566  0.00  0.00    -0.394 OA
ATOM     19  H   UNL     1      -6.495   3.041 -22.896  0.00  0.00    +0.209 HD
ENDBRANCH  17  18
ENDBRANCH   6  17
TORSDOF 3
ENDMDL
MODEL 3
REMARK VINA RESULT:    -9.273      1.033      3.057
REMARK INTER + INTRA:          -8.252
REMARK INTER:                 -10.119
REMARK INTRA:                   1.867
REMARK UNBOUND:                 1.833
REMARK  Name = ZINC000004104704
REMARK  6 active torsions:
REMARK  status: ('A' for Active; 'I' for Inactive)
REMARK    1  A    between atoms: C_1  and  C_2
REMARK    2  A    between atoms: C_5  and  O_6
REMARK    3  A    between atoms: C_7  and  C_8
REMARK    4  A    between atoms: C_8  and  O_9
REMARK    5  A    between atoms: C_15  and  C_16
REMARK    6  A    between atoms: C_15  and  C_17
REMARK                            x       y       z     vdW  Elec       q    Type
REMARK                         _______ _______ _______ _____ _____    ______ ____
ROOT
ATOM      1  C   UNL     1      -0.606   3.102 -23.541  0.00  0.00    +0.008 C 
ATOM      2  C   UNL     1      -1.687   3.302 -24.236  0.00  0.00    -0.010 C 
ATOM      3  C   UNL     1      -1.619   3.393 -25.531  0.00  0.00    +0.006 C 
ATOM      4  C   UNL     1      -2.699   3.593 -26.226  0.00  0.00    +0.032 C 
ATOM      5  C   UNL     1      -3.847   3.702 -25.626  0.00  0.00    +0.123 C 
ATOM      6  C   UNL     1      -3.915   3.611 -24.331  0.00  0.00    +0.023 C 
ATOM      7  C   UNL     1      -5.064   3.720 -23.731  0.00  0.00    +0.012 C 
ATOM      8  C   UNL     1      -5.132   3.629 -22.436  0.00  0.00    +0.005 C 
ATOM      9  C   UNL     1      -4.051   3.429 -21.741  0.00  0.00    -0.001 C 
ATOM     10  C   UNL     1      -2.903   3.320 -22.341  0.00  0.00    +0.003 C 
ATOM     11  C   UNL     1      -2.971   3.229 -21.046  0.00  0.00    -0.028 C 
ATOM     12  C   UNL     1      -3.475   3.205 -19.848  0.00  0.00    +0.011 C 
ATOM     13  C   UNL     1      -1.716   3.038 -20.767  0.00  0.00    +0.011 C 
ATOM     14  C   UNL     1      -2.835   3.411 -23.636  0.00  0.00    +0.007 C 
ENDROOT
BRANCH   5  15
ATOM     15  O   UNL     1      -4.928   3.902 -26.322  0.00  0.00    -0.391 OA
ATOM     16  H   UNL     1      -5.699   3.621 -25.806  0.00  0.00    +0.210 HD
ENDBRANCH   5  15
BRANCH   6  17
ATOM     17  C   UNL     1      -4.996   3.811 -25.026  0.00  0.00    +0.165 C 
BRANCH  17  18
ATOM     18  O   UNL     1      -5.282   3.027 -26.023  0.00  0.00    -0.394 OA
ATOM     19  H   UNL     1      -4.849   2.168 -25.893  0.00  0.00    +0.209 HD
ENDBRANCH  17  18
ENDBRANCH   6  17
TORSDOF 3
ENDMDL
MODEL 4
REMARK VINA RESULT:    -9.226      1.846      3.361
REMARK INTER + INTRA:          -8.201
REMARK INTER:                 -10.394
REMARK INTRA:                   2.192
REMARK UNBOUND:                 1.833
REMARK  Name = ZINC000004104704
REMARK  6 active torsions:
REMARK  status: ('A' for Active; 'I' for Inactive)
REMARK    1  A    between atoms: C_1  and  C_2
REMARK    2  A    between atoms: C_5  and  O_6
REMARK    3  A    between atoms: C_7  and  C_8
REMARK    4  A    between atoms: C_8  and  O_9
REMARK    5  A    between atoms: C_15  and  C_16
REMARK    6  A    between atoms: C_15  and  C_17
REMARK                            x       y       z     vdW  Elec       q    Type
REMARK                         _______ _______ _______ _____ _____    ______ ____
ROOT
ATOM      1  C   UNL     1      -5.165   3.748 -24.222  0.00  0.00    +0.008 C 
ATOM      2  C   UNL     1      -3.946   3.668 -24.665  0.00  0.00    -0.010 C 
ATOM      3  C   UNL     1      -3.717   3.683 -25.945  0.00  0.00    +0.006 C 
ATOM      4  C   UNL     1      -2.497   3.603 -26.388  0.00  0.00    +0.032 C 
ATOM      5  C   UNL     1      -1.506   3.508 -25.551  0.00  0.00    +0.123 C 
ATOM      6  C   UNL     1      -1.735   3.493 -24.272  0.00  0.00    +0.023 C 
ATOM      7  C   UNL     1      -0.744   3.398 -23.435  0.00  0.00    +0.012 C 
ATOM      8  C   UNL     1      -0.973   3.383 -22.156  0.00  0.00    +0.005 C 
ATOM      9  C   UNL     1      -2.193   3.462 -21.712  0.00  0.00    -0.001 C 
ATOM     10  C   UNL     1      -3.184   3.558 -22.549  0.00  0.00    +0.003 C 
ATOM     11  C   UNL     1      -3.413   3.542 -21.269  0.00  0.00    -0.028 C 
ATOM     12  C   UNL     1      -3.191   3.494 -19.989  0.00  0.00    +0.011 C 
ATOM     13  C   UNL     1      -4.709   3.639 -21.270  0.00  0.00    +0.011 C 
ATOM     14  C   UNL     1      -2.955   3.573 -23.829  0.00  0.00    +0.007 C 
ENDROOT
BRANCH   5  15
ATOM     15  O   UNL     1      -0.287   3.428 -25.994  0.00  0.00    -0.391 OA
ATOM     16  H   UNL     1       0.014   4.307 -26.271  0.00  0.00    +0.210 HD
ENDBRANCH   5  15
BRANCH   6  17
ATOM     17  C   UNL     1      -0.515   3.413 -24.715  0.00  0.00    +0.165 C 
BRANCH  17  18
ATOM     18  O   UNL     1      -0.292   3.046 -25.942  0.00  0.00    -0.394 OA
ATOM     19  H   UNL     1      -1.131   3.019 -26.429  0.00  0.00    +0.209 HD
ENDBRANCH  17  18
ENDBRANCH   6  17
TORSDOF 3
ENDMDL
MODEL 5
REMARK VINA RESULT:    -9.113      2.358      4.679
REMARK INTER + INTRA:          -8.079
REMARK INTER:                  -9.919
REMARK INTRA:                   1.840
REMARK UNBOUND:                 1.833
REMARK  Name = ZINC000004104704
REMARK  6 active torsions:
REMARK  status: ('A' for Active; 'I' for Inactive)
REMARK    1  A    between atoms: C_1  and  C_2
REMARK    2  A    between atoms: C_5  and  O_6
REMARK    3  A    between atoms: C_7  and  C_8
REMARK    4  A    between atoms: C_8  and  O_9
REMARK    5  A    between atoms: C_15  and  C_16
REMARK    6  A    between atoms: C_15  and  C_17
REMARK                            x       y       z     vdW  Elec       q    Type
REMARK                         _______ _______ _______ _____ _____    ______ ____
ROOT
ATOM      1  C   UNL     1      -3.234   4.191 -25.385  0.00  0.00    +0.008 C 
ATOM      2  C   UNL     1      -2.256   3.699 -24.683  0.00  0.00    -0.010 C 
ATOM      3  C   UNL     1      -1.050   3.687 -25.169  0.00  0.00    +0.006 C 
ATOM      4  C   UNL     1      -0.072   3.195 -24.468  0.00  0.00    +0.032 C 
ATOM      5  C   UNL     1      -0.300   2.714 -23.281  0.00  0.00    +0.123 C 
ATOM      6  C   UNL     1      -1.506   2.726 -22.796  0.00  0.00    +0.023 C 
ATOM      7  C   UNL     1      -1.734   2.245 -21.610  0.00  0.00    +0.012 C 
ATOM      8  C   UNL     1      -2.940   2.257 -21.124  0.00  0.00    +0.005 C 
ATOM      9  C   UNL     1      -3.918   2.749 -21.825  0.00  0.00    -0.001 C 
ATOM     10  C   UNL     1      -3.690   3.230 -23.012  0.00  0.00    +0.003 C 
ATOM     11  C   UNL     1      -4.896   3.241 -22.526  0.00  0.00    -0.028 C 
ATOM     12  C   UNL     1      -5.881   3.060 -21.697  0.00  0.00    +0.011 C 
ATOM     13  C   UNL     1      -5.532   3.796 -23.515  0.00  0.00    +0.011 C 
ATOM     14  C   UNL     1      -2.484   3.218 -23.497  0.00  0.00    +0.007 C 
ENDROOT
BRANCH   5  15
ATOM     15  O   UNL     1       0.678   2.222 -22.580  0.00  0.00    -0.391 OA
ATOM     16  H   UNL     1       0.390   2.105 -21.662  0.00  0.00    +0.210 HD
ENDBRANCH   5  15
BRANCH   6  17
ATOM     17  C   UNL     1      -0.528   2.234 -22.095  0.00  0.00    +0.165 C 
BRANCH  17  18
ATOM     18  O   UNL     1       0.046   1.127 -22.466  0.00  0.00    -0.394 OA
ATOM     19  H   UNL     1      -0.100   0.445 -21.790  0.00  0.00    +0.209 HD
ENDBRANCH  17  18
ENDBRANCH   6  17
TORSDOF 3
ENDMDL
MODEL 6
REMARK VINA RESULT:    -9.023      1.333      2.230
REMARK INTER + INTRA:          -7.981
REMARK INTER:                 -10.269
REMARK INTRA:                   2.288
REMARK UNBOUND:                 1.833
REMARK  Name = ZINC000004104704
REMARK  6 active torsions:
REMARK  status: ('A' for Active; 'I' for Inactive)
REMARK    1  A    between atoms: C_1  and  C_2
REMARK    2  A    between atoms: C_5  and  O_6
REMARK    3  A    between atoms: C_7  and  C_8
REMARK    4  A    between atoms: C_8  and  O_9
REMARK    5  A    between atoms: C_15  and  C_16
REMARK    6  A    between atoms: C_15  and  C_17
REMARK                            x       y       z     vdW  Elec       q    Type
REMARK                         _______ _______ _______ _____ _____    ______ ____
ROOT
ATOM      1  C   UNL     1      -1.291   2.242 -21.279  0.00  0.00    +0.008 C 
ATOM      2  C   UNL     1      -2.458   2.616 -21.713  0.00  0.00    -0.010 C 
ATOM      3  C   UNL     1      -3.503   2.498 -20.949  0.00  0.00    +0.006 C 
ATOM      4  C   UNL     1      -4.671   2.872 -21.382  0.00  0.00    +0.032 C 
ATOM      5  C   UNL     1      -4.792   3.364 -22.579  0.00  0.00    +0.123 C 
ATOM      6  C   UNL     1      -3.747   3.482 -23.343  0.00  0.00    +0.023 C 
ATOM      7  C   UNL     1      -3.869   3.974 -24.540  0.00  0.00    +0.012 C 
ATOM      8  C   UNL     1      -2.824   4.092 -25.304  0.00  0.00    +0.005 C 
ATOM      9  C   UNL     1      -1.656   3.718 -24.871  0.00  0.00    -0.001 C 
ATOM     10  C   UNL     1      -1.535   3.226 -23.673  0.00  0.00    +0.003 C 
ATOM     11  C   UNL     1      -0.489   3.344 -24.437  0.00  0.00    -0.028 C 
ATOM     12  C   UNL     1       0.239   3.626 -25.477  0.00  0.00    +0.011 C 
ATOM     13  C   UNL     1       0.425   2.872 -23.643  0.00  0.00    +0.011 C 
ATOM     14  C   UNL     1      -2.580   3.108 -22.910  0.00  0.00    +0.007 C 
ENDROOT
BRANCH   5  15
ATOM     15  O   UNL     1      -5.960   3.738 -23.013  0.00  0.00    -0.391 OA
ATOM     16  H   UNL     1      -6.090   3.407 -23.914  0.00  0.00    +0.210 HD
ENDBRANCH   5  15
BRANCH   6  17
ATOM     17  C   UNL     1      -4.914   3.856 -23.777  0.00  0.00    +0.165 C 
BRANCH  17  18
ATOM     18  O   UNL     1      -5.955   3.767 -23.002  0.00  0.00    -0.394 OA
ATOM     19  H   UNL     1      -5.672   3.516 -22.108  0.00  0.00    +0.209 HD
ENDBRANCH  17  18
ENDBRANCH   6  17
TORSDOF 3
ENDMDL
MODEL 7
REMARK VINA RESULT:    -8.980      1.541      3.664
REMARK INTER + INTRA:          -7.934
REMARK INTER:                  -9.823
REMARK INTRA:                   1.889
REMARK UNBOUND:                 1.833
REMARK  Name = ZINC000004104704
REMARK  6 active torsions:
REMARK  status: ('A' for Active; 'I' for Inactive)
REMARK    1  A    between atoms: C_1  and  C_2
REMARK    2  A    between atoms: C_5  and  O_6
REMARK    3  A    between atoms: C_7  and  C_8
REMARK    4  A    between atoms: C_8  and  O_9
REMARK    5  A    between atoms: C_15  and  C_16
REMARK    6  A    between atoms: C_15  and  C_17
REMARK                            x       y       z     vdW  Elec       q    Type
REMARK                         _______ _______ _______ _____ _____    ______ ____
ROOT
ATOM      1  C   UNL     1      -1.463   2.271 -21.028  0.00  0.00    +0.008 C 
ATOM      2  C   UNL     1      -1.240   2.659 -22.249  0.00  0.00    -0.010 C 
ATOM      3  C   UNL     1      -0.027   2.665 -22.717  0.00  0.00    +0.006 C 
ATOM      4  C   UNL     1       0.196   3.053 -23.938  0.00  0.00    +0.032 C 
ATOM      5  C   UNL     1      -0.793   3.434 -24.690  0.00  0.00    +0.123 C 
ATOM      6  C   UNL     1      -2.006   3.427 -24.222  0.00  0.00    +0.023 C 
ATOM      7  C   UNL     1      -2.995   3.808 -24.975  0.00  0.00    +0.012 C 
ATOM      8  C   UNL     1      -4.208   3.802 -24.507  0.00  0.00    +0.005 C 
ATOM      9  C   UNL     1      -4.431   3.415 -23.286  0.00  0.00    -0.001 C 
ATOM     10  C   UNL     1      -3.442   3.034 -22.533  0.00  0.00    +0.003 C 
ATOM     11  C   UNL     1      -4.655   3.027 -22.065  0.00  0.00    -0.028 C 
ATOM     12  C   UNL     1      -5.946   3.173 -22.015  0.00  0.00    +0.011 C 
ATOM     13  C   UNL     1      -4.430   2.589 -20.862  0.00  0.00    +0.011 C 
ATOM     14  C   UNL     1      -2.229   3.040 -23.001  0.00  0.00    +0.007 C 
ENDROOT
BRANCH   5  15
ATOM     15  O   UNL     1      -0.569   3.821 -25.911  0.00  0.00    -0.391 OA
ATOM     16  H   UNL     1      -0.103   4.671 -25.899  0.00  0.00    +0.210 HD
ENDBRANCH   5  15
BRANCH   6  17
ATOM     17  C   UNL     1      -1.782   3.815 -25.443  0.00  0.00    +0.165 C 
BRANCH  17  18
ATOM     18  O   UNL     1      -1.038   3.093 -26.228  0.00  0.00    -0.394 OA
ATOM     19  H   UNL     1      -1.562   2.358 -26.585  0.00  0.00    +0.209 HD
ENDBRANCH  17  18
ENDBRANCH   6  17
TORSDOF 3
ENDMDL
MODEL 8
REMARK VINA RESULT:    -8.968      2.231      4.143
REMARK INTER + INTRA:          -7.921
REMARK INTER:                  -9.790
REMARK INTRA:                   1.869
REMARK UNBOUND:                 1.833
REMARK  Name = ZINC000004104704
REMARK  6 active torsions:
REMARK  status: ('A' for Active; 'I' for Inactive)
REMARK    1  A    between atoms: C_1  and  C_2
REMARK    2  A    between atoms: C_5  and  O_6
REMARK    3  A    between atoms: C_7  and  C_8
REMARK    4  A    between atoms: C_8  and  O_9
REMARK    5  A    between atoms: C_15  and  C_16
REMARK    6  A    between atoms: C_15  and  C_17
REMARK                            x       y       z     vdW  Elec       q    Type
REMARK                         _______ _______ _______ _____ _____    ______ ____
ROOT
ATOM      1  C   UNL     1      -3.202   2.456 -21.036  0.00  0.00    +0.008 C 
ATOM      2  C   UNL     1      -2.101   2.473 -21.727  0.00  0.00    -0.010 C 
ATOM      3  C   UNL     1      -0.992   2.051 -21.195  0.00  0.00    +0.006 C 
ATOM      4  C   UNL     1       0.109   2.068 -21.886  0.00  0.00    +0.032 C 
ATOM      5  C   UNL     1       0.101   2.508 -23.110  0.00  0.00    +0.123 C 
ATOM      6  C   UNL     1      -1.007   2.930 -23.642  0.00  0.00    +0.023 C 
ATOM      7  C   UNL     1      -1.015   3.369 -24.866  0.00  0.00    +0.012 C 
ATOM      8  C   UNL     1      -2.123   3.791 -25.398  0.00  0.00    +0.005 C 
ATOM      9  C   UNL     1      -3.224   3.773 -24.707  0.00  0.00    -0.001 C 
ATOM     10  C   UNL     1      -3.217   3.334 -23.483  0.00  0.00    +0.003 C 
ATOM     11  C   UNL     1      -4.325   3.756 -24.015  0.00  0.00    -0.028 C 
ATOM     12  C   UNL     1      -5.151   4.243 -24.894  0.00  0.00    +0.011 C 
ATOM     13  C   UNL     1      -5.139   3.570 -23.019  0.00  0.00    +0.011 C 
ATOM     14  C   UNL     1      -2.108   2.912 -22.951  0.00  0.00    +0.007 C 
ENDROOT
BRANCH   5  15
ATOM     15  O   UNL     1       1.202   2.525 -23.801  0.00  0.00    -0.391 OA
ATOM     16  H   UNL     1       1.945   2.749 -23.219  0.00  0.00    +0.210 HD
ENDBRANCH   5  15
BRANCH   6  17
ATOM     17  C   UNL     1       0.094   2.947 -24.334  0.00  0.00    +0.165 C 
BRANCH  17  18
ATOM     18  O   UNL     1       0.826   1.876 -24.417  0.00  0.00    -0.394 OA
ATOM     19  H   UNL     1       0.511   1.218 -23.776  0.00  0.00    +0.209 HD
ENDBRANCH  17  18
ENDBRANCH   6  17
TORSDOF 3
ENDMDL
MODEL 9
REMARK VINA RESULT:    -8.659      3.552      5.846
REMARK INTER + INTRA:          -7.585
REMARK INTER:                  -9.418
REMARK INTRA:                   1.833
REMARK UNBOUND:                 1.833
REMARK  Name = ZINC000004104704
REMARK  6 active torsions:
REMARK  status: ('A' for Active; 'I' for Inactive)
REMARK    1  A    between atoms: C_1  and  C_2
REMARK    2  A    between atoms: C_5  and  O_6
REMARK    3  A    between atoms: C_7  and  C_8
REMARK    4  A    between atoms: C_8  and  O_9
REMARK    5  A    between atoms: C_15  and  C_16
REMARK    6  A    between atoms: C_15  and  C_17
REMARK                            x       y       z     vdW  Elec       q    Type
REMARK                         _______ _______ _______ _____ _____    ______ ____
ROOT
ATOM      1  C   UNL     1      -0.281   3.863 -25.082  0.00  0.00    +0.008 C 
ATOM      2  C   UNL     1       0.624   3.077 -24.578  0.00  0.00    -0.010 C 
ATOM      3  C   UNL     1       1.708   2.821 -25.247  0.00  0.00    +0.006 C 
ATOM      4  C   UNL     1       2.613   2.035 -24.743  0.00  0.00    +0.032 C 
ATOM      5  C   UNL     1       2.433   1.505 -23.569  0.00  0.00    +0.123 C 
ATOM      6  C   UNL     1       1.349   1.762 -22.900  0.00  0.00    +0.023 C 
ATOM      7  C   UNL     1       1.169   1.233 -21.726  0.00  0.00    +0.012 C 
ATOM      8  C   UNL     1       0.085   1.489 -21.056  0.00  0.00    +0.005 C 
ATOM      9  C   UNL     1      -0.820   2.275 -21.560  0.00  0.00    -0.001 C 
ATOM     10  C   UNL     1      -0.640   2.805 -22.734  0.00  0.00    +0.003 C 
ATOM     11  C   UNL     1      -1.724   3.062 -22.064  0.00  0.00    -0.028 C 
ATOM     12  C   UNL     1      -2.600   3.043 -21.103  0.00  0.00    +0.011 C 
ATOM     13  C   UNL     1      -2.325   3.854 -22.902  0.00  0.00    +0.011 C 
ATOM     14  C   UNL     1       0.444   2.548 -23.404  0.00  0.00    +0.007 C 
ENDROOT
BRANCH   5  15
ATOM     15  O   UNL     1       3.338   0.719 -23.065  0.00  0.00    -0.391 OA
ATOM     16  H   UNL     1       4.215   1.001 -23.368  0.00  0.00    +0.210 HD
ENDBRANCH   5  15
BRANCH   6  17
ATOM     17  C   UNL     1       2.254   0.976 -22.395  0.00  0.00    +0.165 C 
BRANCH  17  18
ATOM     18  O   UNL     1       2.509  -0.167 -22.959  0.00  0.00    -0.394 OA
ATOM     19  H   UNL     1       3.299  -0.559 -22.553  0.00  0.00    +0.209 HD
ENDBRANCH  17  18
ENDBRANCH   6  17
TORSDOF 3
ENDMDL
