MODEL 1
REMARK VINA RESULT:   -10.403      0.000      0.000
REMARK INTER + INTRA:         -11.788
REMARK INTER:                 -11.416
REMARK INTRA:                  -0.372
REMARK UNBOUND:                 0.439
REMARK  Name = COc1ccc2c(c1Oc1ccccc1)[C@@]13CCN(C)[C@H](C2)[C@@H]1[C@H](C)CC(=O)C3  ZINC000100393767
REMARK  6 active torsions:
REMARK  status: ('A' for Active; 'I' for Inactive)
REMARK    1  A    between atoms: C_1  and  O_2
REMARK    2  A    between atoms: O_2  and  C_3
REMARK    3  A    between atoms: C_8  and  O_9
REMARK    4  A    between atoms: O_9  and  C_10
REMARK    5  A    between atoms: N_19  and  C_20
REMARK    6  A    between atoms: C_24  and  C_25
REMARK                            x       y       z     vdW  Elec       q    Type
REMARK                         _______ _______ _______ _____ _____    ______ ____
ROOT
ATOM      1  C   UNL     1      -1.790   2.757 -21.217  0.00  0.00    +0.162 A 
ATOM      2  C   UNL     1      -2.945   2.792 -20.711  0.00  0.00    +0.050 A 
ATOM      3  C   UNL     1      -3.930   3.021 -21.465  0.00  0.00    +0.008 A 
ATOM      4  C   UNL     1      -3.698   3.237 -22.894  0.00  0.00    -0.035 A 
ATOM      5  C   UNL     1      -2.703   3.192 -23.243  0.00  0.00    +0.009 A 
ATOM      6  C   UNL     1      -2.337   3.301 -24.113  0.00  0.00    +0.019 C 
ATOM      7  C   UNL     1      -2.791   3.079 -22.513  0.00  0.00    +0.063 C 
ATOM      8  C   UNL     1      -4.207   3.164 -22.149  0.00  0.00    +0.132 C 
ATOM      9  N   UNL     1      -4.997   3.386 -22.979  0.00  0.00    +0.236 N 
ATOM     10  H   UNL     1      -5.420   3.582 -23.886  0.00  0.00    +0.203 HD
ATOM     11  C   UNL     1      -4.594   3.598 -24.490  0.00  0.00    +0.073 C 
ATOM     12  C   UNL     1      -5.966   3.334 -22.076  0.00  0.00    +0.190 C 
ATOM     13  C   UNL     1      -1.157   3.249 -24.534  0.00  0.00    +0.086 C 
ATOM     14  C   UNL     1      -0.921   3.436 -25.791  0.00  0.00    +0.134 C 
ATOM     15  O   UNL     1       0.279   3.385 -26.229  0.00  0.00    -0.297 OA
ATOM     16  C   UNL     1      -1.891   3.678 -26.637  0.00  0.00    +0.078 C 
ATOM     17  C   UNL     1      -3.117   3.738 -26.238  0.00  0.00    +0.002 C 
ATOM     18  C   UNL     1      -4.066   3.976 -27.066  0.00  0.00    +0.008 C 
ATOM     19  C   UNL     1      -3.393   3.564 -25.027  0.00  0.00    +0.052 C 
ATOM     20  C   UNL     1      -4.688   3.465 -23.642  0.00  0.00    +0.090 C 
ATOM     21  C   UNL     1      -1.657   2.956 -22.481  0.00  0.00    +0.174 A 
ENDROOT
BRANCH   1  23
ATOM     22  C   UNL     1       0.091   1.481 -20.625  0.00  0.00    +0.277 C 
ATOM     23  O   UNL     1      -0.594   2.532 -20.611  0.00  0.00    -0.491 OA
ENDBRANCH   1  23
BRANCH  21  24
ATOM     24  O   UNL     1      -0.376   2.981 -23.421  0.00  0.00    -0.452 OA
BRANCH  24  25
ATOM     25  C   UNL     1       0.865   3.624 -23.360  0.00  0.00    +0.129 A 
ATOM     26  C   UNL     1       1.874   2.839 -23.355  0.00  0.00    +0.046 A 
ATOM     27  C   UNL     1       3.055   3.323 -23.301  0.00  0.00    +0.004 A 
ATOM     28  C   UNL     1       3.227   4.586 -23.252  0.00  0.00    +0.000 A 
ATOM     29  C   UNL     1       2.217   5.373 -23.257  0.00  0.00    +0.004 A 
ATOM     30  C   UNL     1       1.035   4.890 -23.311  0.00  0.00    +0.046 A 
ENDBRANCH  24  25
ENDBRANCH  21  24
TORSDOF 3
ENDMDL
MODEL 2
REMARK VINA RESULT:   -10.078      1.269      2.010
REMARK INTER + INTRA:         -11.406
REMARK INTER:                 -10.623
REMARK INTRA:                  -0.782
REMARK UNBOUND:                 0.439
REMARK  Name = COc1ccc2c(c1Oc1ccccc1)[C@@]13CCN(C)[C@H](C2)[C@@H]1[C@H](C)CC(=O)C3  ZINC000100393767
REMARK  6 active torsions:
REMARK  status: ('A' for Active; 'I' for Inactive)
REMARK    1  A    between atoms: C_1  and  O_2
REMARK    2  A    between atoms: O_2  and  C_3
REMARK    3  A    between atoms: C_8  and  O_9
REMARK    4  A    between atoms: O_9  and  C_10
REMARK    5  A    between atoms: N_19  and  C_20
REMARK    6  A    between atoms: C_24  and  C_25
REMARK                            x       y       z     vdW  Elec       q    Type
REMARK                         _______ _______ _______ _____ _____    ______ ____
ROOT
ATOM      1  C   UNL     1       0.152   1.524 -21.290  0.00  0.00    +0.162 A 
ATOM      2  C   UNL     1      -0.861   1.381 -20.551  0.00  0.00    +0.050 A 
ATOM      3  C   UNL     1      -1.979   1.782 -20.974  0.00  0.00    +0.008 A 
ATOM      4  C   UNL     1      -2.061   2.395 -22.301  0.00  0.00    -0.035 A 
ATOM      5  C   UNL     1      -1.171   2.479 -22.860  0.00  0.00    +0.009 A 
ATOM      6  C   UNL     1      -1.003   2.837 -23.724  0.00  0.00    +0.019 C 
ATOM      7  C   UNL     1      -1.099   2.164 -22.190  0.00  0.00    +0.063 C 
ATOM      8  C   UNL     1      -2.396   2.103 -21.512  0.00  0.00    +0.132 C 
ATOM      9  N   UNL     1      -3.342   2.523 -22.051  0.00  0.00    +0.236 N 
ATOM     10  H   UNL     1      -3.947   2.952 -22.750  0.00  0.00    +0.203 HD
ATOM     11  C   UNL     1      -3.275   3.160 -23.493  0.00  0.00    +0.073 C 
ATOM     12  C   UNL     1      -4.088   2.194 -21.007  0.00  0.00    +0.190 C 
ATOM     13  C   UNL     1       0.053   2.939 -24.393  0.00  0.00    +0.086 C 
ATOM     14  C   UNL     1       0.012   3.476 -25.568  0.00  0.00    +0.134 C 
ATOM     15  O   UNL     1       1.082   3.585 -26.258  0.00  0.00    -0.297 OA
ATOM     16  C   UNL     1      -1.113   3.917 -26.076  0.00  0.00    +0.078 C 
ATOM     17  C   UNL     1      -2.217   3.826 -25.415  0.00  0.00    +0.002 C 
ATOM     18  C   UNL     1      -3.318   4.257 -25.912  0.00  0.00    +0.008 C 
ATOM     19  C   UNL     1      -2.225   3.313 -24.271  0.00  0.00    +0.052 C 
ATOM     20  C   UNL     1      -3.185   2.794 -22.717  0.00  0.00    +0.090 C 
ATOM     21  C   UNL     1       0.009   2.071 -22.446  0.00  0.00    +0.174 A 
ENDROOT
BRANCH   1  23
ATOM     22  C   UNL     1       2.209   1.612 -20.160  0.00  0.00    +0.277 C 
ATOM     23  O   UNL     1       1.444   1.173 -21.052  0.00  0.00    -0.491 OA
ENDBRANCH   1  23
BRANCH  21  24
ATOM     24  O   UNL     1       1.051   2.395 -23.601  0.00  0.00    -0.452 OA
BRANCH  24  25
ATOM     25  C   UNL     1       2.402   2.755 -23.621  0.00  0.00    +0.129 A 
ATOM     26  C   UNL     1       2.647   3.936 -23.195  0.00  0.00    +0.046 A 
ATOM     27  C   UNL     1       3.850   4.366 -23.170  0.00  0.00    +0.004 A 
ATOM     28  C   UNL     1       4.803   3.620 -23.571  0.00  0.00    +0.000 A 
ATOM     29  C   UNL     1       4.560   2.438 -23.998  0.00  0.00    +0.004 A 
ATOM     30  C   UNL     1       3.357   2.007 -24.023  0.00  0.00    +0.046 A 
ENDBRANCH  24  25
ENDBRANCH  21  24
TORSDOF 3
ENDMDL
MODEL 3
REMARK VINA RESULT:    -9.700      1.353      3.903
REMARK INTER + INTRA:         -10.962
REMARK INTER:                 -10.596
REMARK INTRA:                  -0.365
REMARK UNBOUND:                 0.439
REMARK  Name = COc1ccc2c(c1Oc1ccccc1)[C@@]13CCN(C)[C@H](C2)[C@@H]1[C@H](C)CC(=O)C3  ZINC000100393767
REMARK  6 active torsions:
REMARK  status: ('A' for Active; 'I' for Inactive)
REMARK    1  A    between atoms: C_1  and  O_2
REMARK    2  A    between atoms: O_2  and  C_3
REMARK    3  A    between atoms: C_8  and  O_9
REMARK    4  A    between atoms: O_9  and  C_10
REMARK    5  A    between atoms: N_19  and  C_20
REMARK    6  A    between atoms: C_24  and  C_25
REMARK                            x       y       z     vdW  Elec       q    Type
REMARK                         _______ _______ _______ _____ _____    ______ ____
ROOT
ATOM      1  C   UNL     1       0.136   3.204 -25.500  0.00  0.00    +0.162 A 
ATOM      2  C   UNL     1      -0.755   3.652 -26.273  0.00  0.00    +0.050 A 
ATOM      3  C   UNL     1      -1.935   3.752 -25.841  0.00  0.00    +0.008 A 
ATOM      4  C   UNL     1      -2.227   3.348 -24.465  0.00  0.00    -0.035 A 
ATOM      5  C   UNL     1      -1.429   2.983 -23.879  0.00  0.00    +0.009 A 
ATOM      6  C   UNL     1      -1.398   2.673 -22.981  0.00  0.00    +0.019 C 
ATOM      7  C   UNL     1      -1.252   3.181 -24.574  0.00  0.00    +0.063 C 
ATOM      8  C   UNL     1      -2.435   3.669 -25.285  0.00  0.00    +0.132 C 
ATOM      9  N   UNL     1      -3.462   3.697 -24.732  0.00  0.00    +0.236 N 
ATOM     10  H   UNL     1      -4.175   3.602 -24.009  0.00  0.00    +0.203 HD
ATOM     11  C   UNL     1      -3.624   3.224 -23.234  0.00  0.00    +0.073 C 
ATOM     12  C   UNL     1      -4.040   4.185 -25.819  0.00  0.00    +0.190 C 
ATOM     13  C   UNL     1      -0.453   2.239 -22.281  0.00  0.00    +0.086 C 
ATOM     14  C   UNL     1      -0.680   1.874 -21.062  0.00  0.00    +0.134 C 
ATOM     15  O   UNL     1       0.277   1.430 -20.340  0.00  0.00    -0.297 OA
ATOM     16  C   UNL     1      -1.879   1.949 -20.541  0.00  0.00    +0.078 C 
ATOM     17  C   UNL     1      -2.875   2.391 -21.234  0.00  0.00    +0.002 C 
ATOM     18  C   UNL     1      -4.049   2.465 -20.725  0.00  0.00    +0.008 C 
ATOM     19  C   UNL     1      -2.701   2.756 -22.421  0.00  0.00    +0.052 C 
ATOM     20  C   UNL     1      -3.411   3.452 -24.039  0.00  0.00    +0.090 C 
ATOM     21  C   UNL     1      -0.188   2.867 -24.302  0.00  0.00    +0.174 A 
ENDROOT
BRANCH   1  23
ATOM     22  C   UNL     1       2.023   1.966 -26.153  0.00  0.00    +0.277 C 
ATOM     23  O   UNL     1       1.460   3.008 -25.740  0.00  0.00    -0.491 OA
ENDBRANCH   1  23
BRANCH  21  24
ATOM     24  O   UNL     1       0.666   2.281 -23.097  0.00  0.00    -0.452 OA
BRANCH  24  25
ATOM     25  C   UNL     1       2.036   2.186 -22.830  0.00  0.00    +0.129 A 
ATOM     26  C   UNL     1       2.486   0.991 -22.765  0.00  0.00    +0.046 A 
ATOM     27  C   UNL     1       3.725   0.791 -22.525  0.00  0.00    +0.004 A 
ATOM     28  C   UNL     1       4.510   1.781 -22.352  0.00  0.00    +0.000 A 
ATOM     29  C   UNL     1       4.061   2.978 -22.418  0.00  0.00    +0.004 A 
ATOM     30  C   UNL     1       2.822   3.179 -22.657  0.00  0.00    +0.046 A 
ENDBRANCH  24  25
ENDBRANCH  21  24
TORSDOF 3
ENDMDL
MODEL 4
REMARK VINA RESULT:    -9.439      2.945      6.798
REMARK INTER + INTRA:         -10.655
REMARK INTER:                 -10.050
REMARK INTRA:                  -0.605
REMARK UNBOUND:                 0.439
REMARK  Name = COc1ccc2c(c1Oc1ccccc1)[C@@]13CCN(C)[C@H](C2)[C@@H]1[C@H](C)CC(=O)C3  ZINC000100393767
REMARK  6 active torsions:
REMARK  status: ('A' for Active; 'I' for Inactive)
REMARK    1  A    between atoms: C_1  and  O_2
REMARK    2  A    between atoms: O_2  and  C_3
REMARK    3  A    between atoms: C_8  and  O_9
REMARK    4  A    between atoms: O_9  and  C_10
REMARK    5  A    between atoms: N_19  and  C_20
REMARK    6  A    between atoms: C_24  and  C_25
REMARK                            x       y       z     vdW  Elec       q    Type
REMARK                         _______ _______ _______ _____ _____    ______ ____
ROOT
ATOM      1  C   UNL     1       1.601   1.001 -22.263  0.00  0.00    +0.162 A 
ATOM      2  C   UNL     1       2.407   0.103 -21.898  0.00  0.00    +0.050 A 
ATOM      3  C   UNL     1       3.627   0.397 -21.777  0.00  0.00    +0.008 A 
ATOM      4  C   UNL     1       4.062   1.765 -22.064  0.00  0.00    -0.035 A 
ATOM      5  C   UNL     1       3.328   2.461 -22.365  0.00  0.00    +0.009 A 
ATOM      6  C   UNL     1       3.392   3.382 -22.595  0.00  0.00    +0.019 C 
ATOM      7  C   UNL     1       3.079   1.774 -22.226  0.00  0.00    +0.063 C 
ATOM      8  C   UNL     1       4.183   0.902 -21.819  0.00  0.00    +0.132 C 
ATOM      9  N   UNL     1       5.263   1.340 -21.758  0.00  0.00    +0.236 N 
ATOM     10  H   UNL     1       6.049   1.989 -21.800  0.00  0.00    +0.203 HD
ATOM     11  C   UNL     1       5.581   2.847 -22.100  0.00  0.00    +0.073 C 
ATOM     12  C   UNL     1       5.725   0.158 -21.375  0.00  0.00    +0.190 C 
ATOM     13  C   UNL     1       2.524   4.213 -22.952  0.00  0.00    +0.086 C 
ATOM     14  C   UNL     1       2.877   5.429 -23.213  0.00  0.00    +0.134 C 
ATOM     15  O   UNL     1       2.000   6.284 -23.578  0.00  0.00    -0.297 OA
ATOM     16  C   UNL     1       4.126   5.812 -23.110  0.00  0.00    +0.078 C 
ATOM     17  C   UNL     1       5.044   4.981 -22.744  0.00  0.00    +0.002 C 
ATOM     18  C   UNL     1       6.266   5.356 -22.644  0.00  0.00    +0.008 C 
ATOM     19  C   UNL     1       4.748   3.792 -22.482  0.00  0.00    +0.052 C 
ATOM     20  C   UNL     1       5.285   2.053 -21.941  0.00  0.00    +0.090 C 
ATOM     21  C   UNL     1       2.049   2.184 -22.499  0.00  0.00    +0.174 A 
ENDROOT
BRANCH   1  23
ATOM     22  C   UNL     1      -0.654   1.033 -21.607  0.00  0.00    +0.277 C 
ATOM     23  O   UNL     1       0.258   0.920 -22.460  0.00  0.00    -0.491 OA
ENDBRANCH   1  23
BRANCH  21  24
ATOM     24  O   UNL     1       1.325   3.519 -22.966  0.00  0.00    -0.452 OA
BRANCH  24  25
ATOM     25  C   UNL     1       0.082   3.803 -23.540  0.00  0.00    +0.129 A 
ATOM     26  C   UNL     1      -0.073   3.357 -24.728  0.00  0.00    +0.046 A 
ATOM     27  C   UNL     1      -1.172   3.561 -25.346  0.00  0.00    +0.004 A 
ATOM     28  C   UNL     1      -2.113   4.208 -24.779  0.00  0.00    +0.000 A 
ATOM     29  C   UNL     1      -1.960   4.655 -23.589  0.00  0.00    +0.004 A 
ATOM     30  C   UNL     1      -0.861   4.451 -22.970  0.00  0.00    +0.046 A 
ENDBRANCH  24  25
ENDBRANCH  21  24
TORSDOF 3
ENDMDL
MODEL 5
REMARK VINA RESULT:    -8.413      2.783      7.116
REMARK INTER + INTRA:          -9.449
REMARK INTER:                  -9.172
REMARK INTRA:                  -0.278
REMARK UNBOUND:                 0.439
REMARK  Name = COc1ccc2c(c1Oc1ccccc1)[C@@]13CCN(C)[C@H](C2)[C@@H]1[C@H](C)CC(=O)C3  ZINC000100393767
REMARK  6 active torsions:
REMARK  status: ('A' for Active; 'I' for Inactive)
REMARK    1  A    between atoms: C_1  and  O_2
REMARK    2  A    between atoms: O_2  and  C_3
REMARK    3  A    between atoms: C_8  and  O_9
REMARK    4  A    between atoms: O_9  and  C_10
REMARK    5  A    between atoms: N_19  and  C_20
REMARK    6  A    between atoms: C_24  and  C_25
REMARK                            x       y       z     vdW  Elec       q    Type
REMARK                         _______ _______ _______ _____ _____    ______ ____
ROOT
ATOM      1  C   UNL     1       1.833   5.179 -23.434  0.00  0.00    +0.162 A 
ATOM      2  C   UNL     1       2.802   5.986 -23.426  0.00  0.00    +0.050 A 
ATOM      3  C   UNL     1       3.942   5.558 -23.099  0.00  0.00    +0.008 A 
ATOM      4  C   UNL     1       4.098   4.147 -22.744  0.00  0.00    -0.035 A 
ATOM      5  C   UNL     1       3.241   3.534 -22.774  0.00  0.00    +0.009 A 
ATOM      6  C   UNL     1       3.121   2.610 -22.585  0.00  0.00    +0.019 C 
ATOM      7  C   UNL     1       3.132   4.246 -22.960  0.00  0.00    +0.063 C 
ATOM      8  C   UNL     1       4.388   4.994 -22.880  0.00  0.00    +0.132 C 
ATOM      9  N   UNL     1       5.363   4.438 -22.558  0.00  0.00    +0.236 N 
ATOM     10  H   UNL     1       6.006   3.705 -22.260  0.00  0.00    +0.203 HD
ATOM     11  C   UNL     1       5.377   2.901 -22.201  0.00  0.00    +0.073 C 
ATOM     12  C   UNL     1       6.050   5.565 -22.679  0.00  0.00    +0.190 C 
ATOM     13  C   UNL     1       2.104   1.877 -22.620  0.00  0.00    +0.086 C 
ATOM     14  C   UNL     1       2.210   0.626 -22.311  0.00  0.00    +0.134 C 
ATOM     15  O   UNL     1       1.180  -0.129 -22.343  0.00  0.00    -0.297 OA
ATOM     16  C   UNL     1       3.361   0.108 -21.961  0.00  0.00    +0.078 C 
ATOM     17  C   UNL     1       4.428   0.834 -21.915  0.00  0.00    +0.002 C 
ATOM     18  C   UNL     1       5.554   0.326 -21.573  0.00  0.00    +0.008 C 
ATOM     19  C   UNL     1       4.372   2.052 -22.207  0.00  0.00    +0.052 C 
ATOM     20  C   UNL     1       5.243   3.725 -22.418  0.00  0.00    +0.090 C 
ATOM     21  C   UNL     1       2.039   3.952 -23.110  0.00  0.00    +0.174 A 
ENDROOT
BRANCH   1  23
ATOM     22  C   UNL     1      -0.393   5.780 -22.984  0.00  0.00    +0.277 C 
ATOM     23  O   UNL     1       0.529   5.408 -23.748  0.00  0.00    -0.491 OA
ENDBRANCH   1  23
BRANCH  21  24
ATOM     24  O   UNL     1       1.063   2.701 -23.018  0.00  0.00    -0.452 OA
BRANCH  24  25
ATOM     25  C   UNL     1      -0.318   2.553 -22.855  0.00  0.00    +0.129 A 
ATOM     26  C   UNL     1      -0.715   2.546 -21.640  0.00  0.00    +0.046 A 
ATOM     27  C   UNL     1      -1.959   2.416 -21.379  0.00  0.00    +0.004 A 
ATOM     28  C   UNL     1      -2.802   2.294 -22.328  0.00  0.00    +0.000 A 
ATOM     29  C   UNL     1      -2.406   2.302 -23.545  0.00  0.00    +0.004 A 
ATOM     30  C   UNL     1      -1.162   2.431 -23.807  0.00  0.00    +0.046 A 
ENDBRANCH  24  25
ENDBRANCH  21  24
TORSDOF 3
ENDMDL
MODEL 6
REMARK VINA RESULT:    -7.938      3.733      6.395
REMARK INTER + INTRA:          -8.891
REMARK INTER:                  -8.114
REMARK INTRA:                  -0.777
REMARK UNBOUND:                 0.439
REMARK  Name = COc1ccc2c(c1Oc1ccccc1)[C@@]13CCN(C)[C@H](C2)[C@@H]1[C@H](C)CC(=O)C3  ZINC000100393767
REMARK  6 active torsions:
REMARK  status: ('A' for Active; 'I' for Inactive)
REMARK    1  A    between atoms: C_1  and  O_2
REMARK    2  A    between atoms: O_2  and  C_3
REMARK    3  A    between atoms: C_8  and  O_9
REMARK    4  A    between atoms: O_9  and  C_10
REMARK    5  A    between atoms: N_19  and  C_20
REMARK    6  A    between atoms: C_24  and  C_25
REMARK                            x       y       z     vdW  Elec       q    Type
REMARK                         _______ _______ _______ _____ _____    ______ ____
ROOT
ATOM      1  C   UNL     1       3.408   5.923 -22.803  0.00  0.00    +0.162 A 
ATOM      2  C   UNL     1       2.250   6.214 -23.210  0.00  0.00    +0.050 A 
ATOM      3  C   UNL     1       1.445   5.277 -23.463  0.00  0.00    +0.008 A 
ATOM      4  C   UNL     1       1.881   3.893 -23.278  0.00  0.00    -0.035 A 
ATOM      5  C   UNL     1       2.865   3.729 -22.935  0.00  0.00    +0.009 A 
ATOM      6  C   UNL     1       3.341   2.927 -22.751  0.00  0.00    +0.019 C 
ATOM      7  C   UNL     1       2.670   4.442 -23.020  0.00  0.00    +0.063 C 
ATOM      8  C   UNL     1       1.290   4.542 -23.498  0.00  0.00    +0.132 C 
ATOM      9  N   UNL     1       0.678   3.566 -23.684  0.00  0.00    +0.236 N 
ATOM     10  H   UNL     1       0.422   2.581 -23.747  0.00  0.00    +0.203 HD
ATOM     11  C   UNL     1       1.287   2.131 -23.438  0.00  0.00    +0.073 C 
ATOM     12  C   UNL     1      -0.367   4.288 -24.062  0.00  0.00    +0.190 C 
ATOM     13  C   UNL     1       4.510   2.726 -22.343  0.00  0.00    +0.086 C 
ATOM     14  C   UNL     1       4.924   1.514 -22.170  0.00  0.00    +0.134 C 
ATOM     15  O   UNL     1       6.113   1.299 -21.755  0.00  0.00    -0.297 OA
ATOM     16  C   UNL     1       4.146   0.488 -22.412  0.00  0.00    +0.078 C 
ATOM     17  C   UNL     1       2.937   0.659 -22.832  0.00  0.00    +0.002 C 
ATOM     18  C   UNL     1       2.176  -0.345 -23.069  0.00  0.00    +0.008 C 
ATOM     19  C   UNL     1       2.493   1.817 -23.015  0.00  0.00    +0.052 C 
ATOM     20  C   UNL     1       1.069   2.960 -23.534  0.00  0.00    +0.090 C 
ATOM     21  C   UNL     1       3.727   4.684 -22.662  0.00  0.00    +0.174 A 
ENDROOT
BRANCH   1  23
ATOM     22  C   UNL     1       4.409   7.735 -21.694  0.00  0.00    +0.277 C 
ATOM     23  O   UNL     1       4.434   6.751 -22.471  0.00  0.00    -0.491 OA
ENDBRANCH   1  23
BRANCH  21  24
ATOM     24  O   UNL     1       5.070   3.983 -22.182  0.00  0.00    -0.452 OA
BRANCH  24  25
ATOM     25  C   UNL     1       6.409   4.381 -22.126  0.00  0.00    +0.129 A 
ATOM     26  C   UNL     1       6.985   4.482 -23.263  0.00  0.00    +0.046 A 
ATOM     27  C   UNL     1       8.211   4.838 -23.325  0.00  0.00    +0.004 A 
ATOM     28  C   UNL     1       8.857   5.092 -22.256  0.00  0.00    +0.000 A 
ATOM     29  C   UNL     1       8.282   4.991 -21.117  0.00  0.00    +0.004 A 
ATOM     30  C   UNL     1       7.056   4.635 -21.053  0.00  0.00    +0.046 A 
ENDBRANCH  24  25
ENDBRANCH  21  24
TORSDOF 3
ENDMDL
MODEL 7
REMARK VINA RESULT:    -7.490      6.071      9.315
REMARK INTER + INTRA:          -8.365
REMARK INTER:                  -7.625
REMARK INTRA:                  -0.739
REMARK UNBOUND:                 0.439
REMARK  Name = COc1ccc2c(c1Oc1ccccc1)[C@@]13CCN(C)[C@H](C2)[C@@H]1[C@H](C)CC(=O)C3  ZINC000100393767
REMARK  6 active torsions:
REMARK  status: ('A' for Active; 'I' for Inactive)
REMARK    1  A    between atoms: C_1  and  O_2
REMARK    2  A    between atoms: O_2  and  C_3
REMARK    3  A    between atoms: C_8  and  O_9
REMARK    4  A    between atoms: O_9  and  C_10
REMARK    5  A    between atoms: N_19  and  C_20
REMARK    6  A    between atoms: C_24  and  C_25
REMARK                            x       y       z     vdW  Elec       q    Type
REMARK                         _______ _______ _______ _____ _____    ______ ____
ROOT
ATOM      1  C   UNL     1       7.787   6.718 -22.115  0.00  0.00    +0.162 A 
ATOM      2  C   UNL     1       8.792   6.019 -22.415  0.00  0.00    +0.050 A 
ATOM      3  C   UNL     1       8.607   4.881 -22.926  0.00  0.00    +0.008 A 
ATOM      4  C   UNL     1       7.238   4.415 -23.149  0.00  0.00    -0.035 A 
ATOM      5  C   UNL     1       6.448   5.056 -22.871  0.00  0.00    +0.009 A 
ATOM      6  C   UNL     1       5.505   4.953 -22.928  0.00  0.00    +0.019 C 
ATOM      7  C   UNL     1       7.133   5.319 -22.746  0.00  0.00    +0.063 C 
ATOM      8  C   UNL     1       8.141   4.344 -23.170  0.00  0.00    +0.132 C 
ATOM      9  N   UNL     1       7.794   3.328 -23.628  0.00  0.00    +0.236 N 
ATOM     10  H   UNL     1       7.201   2.573 -23.971  0.00  0.00    +0.203 HD
ATOM     11  C   UNL     1       6.269   2.963 -23.808  0.00  0.00    +0.073 C 
ATOM     12  C   UNL     1       9.058   2.960 -23.778  0.00  0.00    +0.190 C 
ATOM     13  C   UNL     1       4.562   5.713 -22.599  0.00  0.00    +0.086 C 
ATOM     14  C   UNL     1       3.342   5.328 -22.785  0.00  0.00    +0.134 C 
ATOM     15  O   UNL     1       2.375   6.094 -22.453  0.00  0.00    -0.297 OA
ATOM     16  C   UNL     1       3.069   4.159 -23.309  0.00  0.00    +0.078 C 
ATOM     17  C   UNL     1       4.015   3.354 -23.658  0.00  0.00    +0.002 C 
ATOM     18  C   UNL     1       3.748   2.210 -24.172  0.00  0.00    +0.008 C 
ATOM     19  C   UNL     1       5.214   3.684 -23.497  0.00  0.00    +0.052 C 
ATOM     20  C   UNL     1       7.060   3.274 -23.660  0.00  0.00    +0.090 C 
ATOM     21  C   UNL     1       6.610   6.248 -22.338  0.00  0.00    +0.174 A 
ENDROOT
BRANCH   1  23
ATOM     22  C   UNL     1       8.372   8.384 -20.565  0.00  0.00    +0.277 C 
ATOM     23  O   UNL     1       7.739   7.959 -21.561  0.00  0.00    -0.491 OA
ENDBRANCH   1  23
BRANCH  21  24
ATOM     24  O   UNL     1       5.162   6.851 -22.085  0.00  0.00    -0.452 OA
BRANCH  24  25
ATOM     25  C   UNL     1       4.683   8.109 -21.706  0.00  0.00    +0.129 A 
ATOM     26  C   UNL     1       4.488   8.251 -20.450  0.00  0.00    +0.046 A 
ATOM     27  C   UNL     1       4.051   9.362 -19.996  0.00  0.00    +0.004 A 
ATOM     28  C   UNL     1       3.811  10.328 -20.794  0.00  0.00    +0.000 A 
ATOM     29  C   UNL     1       4.006  10.187 -22.051  0.00  0.00    +0.004 A 
ATOM     30  C   UNL     1       4.443   9.076 -22.506  0.00  0.00    +0.046 A 
ENDBRANCH  24  25
ENDBRANCH  21  24
TORSDOF 3
ENDMDL
