MODEL 1
REMARK VINA RESULT:   -11.206      0.000      0.000
REMARK INTER + INTRA:         -12.323
REMARK INTER:                 -12.174
REMARK INTRA:                  -0.148
REMARK UNBOUND:                -0.134
REMARK  Name = COc1ccc2c3c1O[C@@]1(C)[C@@H](O)C=C[C@H]4[C@@H](C2)N(C)CC[C@]341      ZINC000100393604
REMARK  5 active torsions:
REMARK  status: ('A' for Active; 'I' for Inactive)
REMARK    1  A    between atoms: C_1  and  O_2
REMARK    2  A    between atoms: O_2  and  C_3
REMARK    3  A    between atoms: C_10  and  C_11
REMARK    4  A    between atoms: C_12  and  O_13
REMARK    5  A    between atoms: N_19  and  C_20
REMARK                            x       y       z     vdW  Elec       q    Type
REMARK                         _______ _______ _______ _____ _____    ______ ____
ROOT
ATOM      1  C   UNL     1       0.433   2.218 -23.385  0.00  0.00    +0.162 A 
ATOM      2  C   UNL     1       0.403   1.858 -22.173  0.00  0.00    +0.050 A 
ATOM      3  C   UNL     1      -0.663   1.913 -21.520  0.00  0.00    +0.008 A 
ATOM      4  C   UNL     1      -1.713   2.327 -22.069  0.00  0.00    -0.034 A 
ATOM      5  C   UNL     1      -1.703   2.690 -23.276  0.00  0.00    +0.012 A 
ATOM      6  C   UNL     1      -2.750   3.104 -23.822  0.00  0.00    +0.058 C 
ATOM      7  C   UNL     1      -3.876   3.590 -24.547  0.00  0.00    +0.067 C 
ATOM      8  C   UNL     1      -5.093   3.663 -23.835  0.00  0.00    +0.132 C 
ATOM      9  N   UNL     1      -5.086   3.253 -22.486  0.00  0.00    +0.236 N 
ATOM     10  H   UNL     1      -5.937   3.284 -21.924  0.00  0.00    +0.203 HD
ATOM     11  C   UNL     1      -6.122   3.286 -21.785  0.00  0.00    +0.190 C 
ATOM     12  C   UNL     1      -3.843   2.798 -21.957  0.00  0.00    +0.076 C 
ATOM     13  C   UNL     1      -3.817   3.159 -23.170  0.00  0.00    +0.075 C 
ATOM     14  C   UNL     1      -4.874   3.577 -23.723  0.00  0.00    -0.019 C 
ATOM     15  C   UNL     1      -4.856   3.936 -24.923  0.00  0.00    +0.004 C 
ATOM     16  C   UNL     1      -3.781   3.882 -25.587  0.00  0.00    +0.181 C 
ATOM     17  C   UNL     1      -2.734   3.469 -25.042  0.00  0.00    +0.148 C 
ATOM     18  C   UNL     1      -2.431   3.755 -26.222  0.00  0.00    +0.060 C 
ATOM     19  O   UNL     1      -1.263   3.166 -25.192  0.00  0.00    -0.478 OA
ATOM     20  C   UNL     1      -2.799   2.385 -21.408  0.00  0.00    +0.090 C 
ATOM     21  C   UNL     1      -0.629   2.637 -23.939  0.00  0.00    +0.167 A 
ENDROOT
BRANCH   1  23
ATOM     22  C   UNL     1       2.166   3.201 -24.241  0.00  0.00    +0.277 C 
ATOM     23  O   UNL     1       1.500   2.161 -24.035  0.00  0.00    -0.491 OA
ENDBRANCH   1  23
BRANCH  16  24
ATOM     24  O   UNL     1      -3.765   4.242 -26.786  0.00  0.00    -0.384 OA
ATOM     25  H   UNL     1      -4.402   3.712 -27.291  0.00  0.00    +0.210 HD
ENDBRANCH  16  24
TORSDOF 2
ENDMDL
MODEL 2
REMARK VINA RESULT:   -10.627      2.177      5.060
REMARK INTER + INTRA:         -11.693
REMARK INTER:                 -11.579
REMARK INTRA:                  -0.114
REMARK UNBOUND:                -0.134
REMARK  Name = COc1ccc2c3c1O[C@@]1(C)[C@@H](O)C=C[C@H]4[C@@H](C2)N(C)CC[C@]341      ZINC000100393604
REMARK  5 active torsions:
REMARK  status: ('A' for Active; 'I' for Inactive)
REMARK    1  A    between atoms: C_1  and  O_2
REMARK    2  A    between atoms: O_2  and  C_3
REMARK    3  A    between atoms: C_10  and  C_11
REMARK    4  A    between atoms: C_12  and  O_13
REMARK    5  A    between atoms: N_19  and  C_20
REMARK                            x       y       z     vdW  Elec       q    Type
REMARK                         _______ _______ _______ _____ _____    ______ ____
ROOT
ATOM      1  C   UNL     1      -3.314   3.206 -22.695  0.00  0.00    +0.162 A 
ATOM      2  C   UNL     1      -3.430   2.630 -21.574  0.00  0.00    +0.050 A 
ATOM      3  C   UNL     1      -2.449   2.054 -21.051  0.00  0.00    +0.008 A 
ATOM      4  C   UNL     1      -1.341   2.047 -21.641  0.00  0.00    -0.034 A 
ATOM      5  C   UNL     1      -1.206   2.615 -22.757  0.00  0.00    +0.012 A 
ATOM      6  C   UNL     1      -0.101   2.606 -23.343  0.00  0.00    +0.058 C 
ATOM      7  C   UNL     1       1.104   2.661 -24.101  0.00  0.00    +0.067 C 
ATOM      8  C   UNL     1       2.227   2.020 -23.536  0.00  0.00    +0.132 C 
ATOM      9  N   UNL     1       2.060   1.390 -22.286  0.00  0.00    +0.236 N 
ATOM     10  H   UNL     1       2.837   0.911 -21.830  0.00  0.00    +0.203 HD
ATOM     11  C   UNL     1       3.005   0.800 -21.716  0.00  0.00    +0.190 C 
ATOM     12  C   UNL     1       0.761   1.456 -21.701  0.00  0.00    +0.076 C 
ATOM     13  C   UNL     1       0.881   2.031 -22.822  0.00  0.00    +0.075 C 
ATOM     14  C   UNL     1       1.997   2.023 -23.415  0.00  0.00    -0.019 C 
ATOM     15  C   UNL     1       2.122   2.590 -24.525  0.00  0.00    +0.004 C 
ATOM     16  C   UNL     1       1.135   3.172 -25.058  0.00  0.00    +0.181 C 
ATOM     17  C   UNL     1       0.029   3.182 -24.472  0.00  0.00    +0.148 C 
ATOM     18  C   UNL     1      -0.130   3.811 -25.542  0.00  0.00    +0.060 C 
ATOM     19  O   UNL     1      -1.414   3.624 -24.498  0.00  0.00    -0.478 OA
ATOM     20  C   UNL     1      -0.342   1.463 -21.111  0.00  0.00    +0.090 C 
ATOM     21  C   UNL     1      -2.193   3.197 -23.289  0.00  0.00    +0.167 A 
ENDROOT
BRANCH   1  23
ATOM     22  C   UNL     1      -5.454   3.535 -22.806  0.00  0.00    +0.277 C 
ATOM     23  O   UNL     1      -4.297   3.779 -23.214  0.00  0.00    -0.491 OA
ENDBRANCH   1  23
BRANCH  16  24
ATOM     24  O   UNL     1       1.262   3.738 -26.167  0.00  0.00    -0.384 OA
ATOM     25  H   UNL     1       0.465   3.589 -26.700  0.00  0.00    +0.210 HD
ENDBRANCH  16  24
TORSDOF 2
ENDMDL
MODEL 3
REMARK VINA RESULT:   -10.308      2.136      5.498
REMARK INTER + INTRA:         -11.347
REMARK INTER:                 -11.260
REMARK INTRA:                  -0.087
REMARK UNBOUND:                -0.134
REMARK  Name = COc1ccc2c3c1O[C@@]1(C)[C@@H](O)C=C[C@H]4[C@@H](C2)N(C)CC[C@]341      ZINC000100393604
REMARK  5 active torsions:
REMARK  status: ('A' for Active; 'I' for Inactive)
REMARK    1  A    between atoms: C_1  and  O_2
REMARK    2  A    between atoms: O_2  and  C_3
REMARK    3  A    between atoms: C_10  and  C_11
REMARK    4  A    between atoms: C_12  and  O_13
REMARK    5  A    between atoms: N_19  and  C_20
REMARK                            x       y       z     vdW  Elec       q    Type
REMARK                         _______ _______ _______ _____ _____    ______ ____
ROOT
ATOM      1  C   UNL     1      -4.629   3.711 -23.038  0.00  0.00    +0.162 A 
ATOM      2  C   UNL     1      -4.816   4.155 -24.207  0.00  0.00    +0.050 A 
ATOM      3  C   UNL     1      -3.882   4.163 -25.041  0.00  0.00    +0.008 A 
ATOM      4  C   UNL     1      -2.750   3.729 -24.716  0.00  0.00    -0.034 A 
ATOM      5  C   UNL     1      -2.545   3.283 -23.555  0.00  0.00    +0.012 A 
ATOM      6  C   UNL     1      -1.416   2.851 -23.233  0.00  0.00    +0.058 C 
ATOM      7  C   UNL     1      -0.178   2.334 -22.754  0.00  0.00    +0.067 C 
ATOM      8  C   UNL     1       0.895   2.331 -23.672  0.00  0.00    +0.132 C 
ATOM      9  N   UNL     1       0.648   2.833 -24.966  0.00  0.00    +0.236 N 
ATOM     10  H   UNL     1       1.386   2.855 -25.671  0.00  0.00    +0.203 HD
ATOM     11  C   UNL     1       1.544   2.866 -25.839  0.00  0.00    +0.190 C 
ATOM     12  C   UNL     1      -0.671   3.303 -25.234  0.00  0.00    +0.076 C 
ATOM     13  C   UNL     1      -0.480   2.858 -24.065  0.00  0.00    +0.075 C 
ATOM     14  C   UNL     1       0.659   2.421 -23.738  0.00  0.00    -0.019 C 
ATOM     15  C   UNL     1       0.855   1.979 -22.582  0.00  0.00    +0.004 C 
ATOM     16  C   UNL     1      -0.085   1.969 -21.737  0.00  0.00    +0.181 C 
ATOM     17  C   UNL     1      -1.214   2.401 -22.058  0.00  0.00    +0.148 C 
ATOM     18  C   UNL     1      -1.302   2.029 -20.866  0.00  0.00    +0.060 C 
ATOM     19  O   UNL     1      -2.637   2.668 -21.630  0.00  0.00    -0.478 OA
ATOM     20  C   UNL     1      -1.798   3.736 -25.560  0.00  0.00    +0.090 C 
ATOM     21  C   UNL     1      -3.485   3.273 -22.712  0.00  0.00    +0.167 A 
ENDROOT
BRANCH   1  23
ATOM     22  C   UNL     1      -5.980   2.622 -21.738  0.00  0.00    +0.277 C 
ATOM     23  O   UNL     1      -5.566   3.705 -22.208  0.00  0.00    -0.491 OA
ENDBRANCH   1  23
BRANCH  16  24
ATOM     24  O   UNL     1       0.112   1.527 -20.582  0.00  0.00    -0.384 OA
ATOM     25  H   UNL     1       1.004   1.148 -20.529  0.00  0.00    +0.210 HD
ENDBRANCH  16  24
TORSDOF 2
ENDMDL
MODEL 4
REMARK VINA RESULT:   -10.222      1.840      3.184
REMARK INTER + INTRA:         -11.253
REMARK INTER:                 -11.103
REMARK INTRA:                  -0.150
REMARK UNBOUND:                -0.134
REMARK  Name = COc1ccc2c3c1O[C@@]1(C)[C@@H](O)C=C[C@H]4[C@@H](C2)N(C)CC[C@]341      ZINC000100393604
REMARK  5 active torsions:
REMARK  status: ('A' for Active; 'I' for Inactive)
REMARK    1  A    between atoms: C_1  and  O_2
REMARK    2  A    between atoms: O_2  and  C_3
REMARK    3  A    between atoms: C_10  and  C_11
REMARK    4  A    between atoms: C_12  and  O_13
REMARK    5  A    between atoms: N_19  and  C_20
REMARK                            x       y       z     vdW  Elec       q    Type
REMARK                         _______ _______ _______ _____ _____    ______ ____
ROOT
ATOM      1  C   UNL     1       1.159   3.085 -23.320  0.00  0.00    +0.162 A 
ATOM      2  C   UNL     1       1.347   3.204 -24.565  0.00  0.00    +0.050 A 
ATOM      3  C   UNL     1       0.378   3.356 -25.343  0.00  0.00    +0.008 A 
ATOM      4  C   UNL     1      -0.791   3.391 -24.886  0.00  0.00    -0.034 A 
ATOM      5  C   UNL     1      -0.998   3.275 -23.648  0.00  0.00    +0.012 A 
ATOM      6  C   UNL     1      -2.163   3.310 -23.195  0.00  0.00    +0.058 C 
ATOM      7  C   UNL     1      -3.441   3.335 -22.566  0.00  0.00    +0.067 C 
ATOM      8  C   UNL     1      -4.554   3.505 -23.418  0.00  0.00    +0.132 C 
ATOM      9  N   UNL     1      -4.304   3.635 -24.800  0.00  0.00    +0.236 N 
ATOM     10  H   UNL     1      -5.070   3.760 -25.462  0.00  0.00    +0.203 HD
ATOM     11  C   UNL     1      -5.234   3.789 -25.623  0.00  0.00    +0.190 C 
ATOM     12  C   UNL     1      -2.942   3.581 -25.216  0.00  0.00    +0.076 C 
ATOM     13  C   UNL     1      -3.134   3.462 -23.970  0.00  0.00    +0.075 C 
ATOM     14  C   UNL     1      -4.310   3.498 -23.511  0.00  0.00    -0.019 C 
ATOM     15  C   UNL     1      -4.508   3.381 -22.279  0.00  0.00    +0.004 C 
ATOM     16  C   UNL     1      -3.532   3.227 -21.490  0.00  0.00    +0.181 C 
ATOM     17  C   UNL     1      -2.366   3.192 -21.943  0.00  0.00    +0.148 C 
ATOM     18  C   UNL     1      -2.270   3.053 -20.703  0.00  0.00    +0.060 C 
ATOM     19  O   UNL     1      -0.894   3.054 -21.640  0.00  0.00    -0.478 OA
ATOM     20  C   UNL     1      -1.779   3.546 -25.673  0.00  0.00    +0.090 C 
ATOM     21  C   UNL     1      -0.023   3.121 -22.861  0.00  0.00    +0.167 A 
ENDROOT
BRANCH   1  23
ATOM     22  C   UNL     1       2.512   1.783 -22.237  0.00  0.00    +0.277 C 
ATOM     23  O   UNL     1       2.130   2.933 -22.547  0.00  0.00    -0.491 OA
ENDBRANCH   1  23
BRANCH  16  24
ATOM     24  O   UNL     1      -3.732   3.111 -20.260  0.00  0.00    -0.384 OA
ATOM     25  H   UNL     1      -4.632   3.403 -20.049  0.00  0.00    +0.210 HD
ENDBRANCH  16  24
TORSDOF 2
ENDMDL
MODEL 5
REMARK VINA RESULT:    -9.931      1.276      1.948
REMARK INTER + INTRA:         -10.936
REMARK INTER:                 -10.800
REMARK INTRA:                  -0.136
REMARK UNBOUND:                -0.134
REMARK  Name = COc1ccc2c3c1O[C@@]1(C)[C@@H](O)C=C[C@H]4[C@@H](C2)N(C)CC[C@]341      ZINC000100393604
REMARK  5 active torsions:
REMARK  status: ('A' for Active; 'I' for Inactive)
REMARK    1  A    between atoms: C_1  and  O_2
REMARK    2  A    between atoms: O_2  and  C_3
REMARK    3  A    between atoms: C_10  and  C_11
REMARK    4  A    between atoms: C_12  and  O_13
REMARK    5  A    between atoms: N_19  and  C_20
REMARK                            x       y       z     vdW  Elec       q    Type
REMARK                         _______ _______ _______ _____ _____    ______ ____
ROOT
ATOM      1  C   UNL     1       2.312   1.935 -23.172  0.00  0.00    +0.162 A 
ATOM      2  C   UNL     1       2.363   1.530 -21.974  0.00  0.00    +0.050 A 
ATOM      3  C   UNL     1       1.328   1.499 -21.270  0.00  0.00    +0.008 A 
ATOM      4  C   UNL     1       0.232   1.872 -21.753  0.00  0.00    -0.034 A 
ATOM      5  C   UNL     1       0.161   2.278 -22.943  0.00  0.00    +0.012 A 
ATOM      6  C   UNL     1      -0.933   2.649 -23.423  0.00  0.00    +0.058 C 
ATOM      7  C   UNL     1      -2.119   3.095 -24.074  0.00  0.00    +0.067 C 
ATOM      8  C   UNL     1      -3.301   3.071 -23.304  0.00  0.00    +0.132 C 
ATOM      9  N   UNL     1      -3.206   2.613 -21.974  0.00  0.00    +0.236 N 
ATOM     10  H   UNL     1      -4.028   2.574 -21.371  0.00  0.00    +0.203 HD
ATOM     11  C   UNL     1      -4.206   2.560 -21.224  0.00  0.00    +0.190 C 
ATOM     12  C   UNL     1      -1.914   2.213 -21.522  0.00  0.00    +0.076 C 
ATOM     13  C   UNL     1      -1.968   2.619 -22.720  0.00  0.00    +0.075 C 
ATOM     14  C   UNL     1      -3.073   2.994 -23.206  0.00  0.00    -0.019 C 
ATOM     15  C   UNL     1      -3.134   3.397 -24.390  0.00  0.00    +0.004 C 
ATOM     16  C   UNL     1      -2.092   3.430 -25.105  0.00  0.00    +0.181 C 
ATOM     17  C   UNL     1      -0.998   3.059 -24.627  0.00  0.00    +0.148 C 
ATOM     18  C   UNL     1      -0.770   3.405 -25.808  0.00  0.00    +0.060 C 
ATOM     19  O   UNL     1       0.479   2.848 -24.858  0.00  0.00    -0.478 OA
ATOM     20  C   UNL     1      -0.822   1.841 -21.039  0.00  0.00    +0.090 C 
ATOM     21  C   UNL     1       1.203   2.311 -23.657  0.00  0.00    +0.167 A 
ENDROOT
BRANCH   1  23
ATOM     22  C   UNL     1       4.255   2.788 -23.618  0.00  0.00    +0.277 C 
ATOM     23  O   UNL     1       3.348   1.965 -23.872  0.00  0.00    -0.491 OA
ENDBRANCH   1  23
BRANCH  16  24
ATOM     24  O   UNL     1      -2.156   3.833 -26.289  0.00  0.00    -0.384 OA
ATOM     25  H   UNL     1      -2.959   4.364 -26.408  0.00  0.00    +0.210 HD
ENDBRANCH  16  24
TORSDOF 2
ENDMDL
MODEL 6
REMARK VINA RESULT:    -9.647      2.716      6.534
REMARK INTER + INTRA:         -10.627
REMARK INTER:                 -10.481
REMARK INTRA:                  -0.145
REMARK UNBOUND:                -0.134
REMARK  Name = COc1ccc2c3c1O[C@@]1(C)[C@@H](O)C=C[C@H]4[C@@H](C2)N(C)CC[C@]341      ZINC000100393604
REMARK  5 active torsions:
REMARK  status: ('A' for Active; 'I' for Inactive)
REMARK    1  A    between atoms: C_1  and  O_2
REMARK    2  A    between atoms: O_2  and  C_3
REMARK    3  A    between atoms: C_10  and  C_11
REMARK    4  A    between atoms: C_12  and  O_13
REMARK    5  A    between atoms: N_19  and  C_20
REMARK                            x       y       z     vdW  Elec       q    Type
REMARK                         _______ _______ _______ _____ _____    ______ ____
ROOT
ATOM      1  C   UNL     1      -1.785   2.847 -23.985  0.00  0.00    +0.162 A 
ATOM      2  C   UNL     1      -1.513   3.342 -25.117  0.00  0.00    +0.050 A 
ATOM      3  C   UNL     1      -0.325   3.548 -25.452  0.00  0.00    +0.008 A 
ATOM      4  C   UNL     1       0.606   3.261 -24.661  0.00  0.00    -0.034 A 
ATOM      5  C   UNL     1       0.356   2.767 -23.530  0.00  0.00    +0.012 A 
ATOM      6  C   UNL     1       1.285   2.482 -22.743  0.00  0.00    +0.058 C 
ATOM      7  C   UNL     1       2.258   2.119 -21.767  0.00  0.00    +0.067 C 
ATOM      8  C   UNL     1       3.607   2.340 -22.117  0.00  0.00    +0.132 C 
ATOM      9  N   UNL     1       3.870   2.893 -23.387  0.00  0.00    +0.236 N 
ATOM     10  H   UNL     1       4.827   3.074 -23.694  0.00  0.00    +0.203 HD
ATOM     11  C   UNL     1       5.038   3.120 -23.775  0.00  0.00    +0.190 C 
ATOM     12  C   UNL     1       2.742   3.183 -24.209  0.00  0.00    +0.076 C 
ATOM     13  C   UNL     1       2.475   2.687 -23.076  0.00  0.00    +0.075 C 
ATOM     14  C   UNL     1       3.413   2.398 -22.280  0.00  0.00    -0.019 C 
ATOM     15  C   UNL     1       3.155   1.908 -21.157  0.00  0.00    +0.004 C 
ATOM     16  C   UNL     1       1.957   1.698 -20.813  0.00  0.00    +0.181 C 
ATOM     17  C   UNL     1       1.026   1.983 -21.600  0.00  0.00    +0.148 C 
ATOM     18  C   UNL     1       0.490   1.517 -20.569  0.00  0.00    +0.060 C 
ATOM     19  O   UNL     1      -0.463   2.008 -21.843  0.00  0.00    -0.478 OA
ATOM     20  C   UNL     1       1.816   3.469 -24.999  0.00  0.00    +0.090 C 
ATOM     21  C   UNL     1      -0.842   2.558 -23.187  0.00  0.00    +0.167 A 
ENDROOT
BRANCH   1  23
ATOM     22  C   UNL     1      -3.543   3.415 -22.850  0.00  0.00    +0.277 C 
ATOM     23  O   UNL     1      -2.974   2.644 -23.654  0.00  0.00    -0.491 OA
ENDBRANCH   1  23
BRANCH  16  24
ATOM     24  O   UNL     1       1.701   1.207 -19.690  0.00  0.00    -0.384 OA
ATOM     25  H   UNL     1       0.821   1.498 -19.403  0.00  0.00    +0.210 HD
ENDBRANCH  16  24
TORSDOF 2
ENDMDL
MODEL 7
REMARK VINA RESULT:    -9.578      2.157      3.671
REMARK INTER + INTRA:         -10.553
REMARK INTER:                 -10.439
REMARK INTRA:                  -0.114
REMARK UNBOUND:                -0.134
REMARK  Name = COc1ccc2c3c1O[C@@]1(C)[C@@H](O)C=C[C@H]4[C@@H](C2)N(C)CC[C@]341      ZINC000100393604
REMARK  5 active torsions:
REMARK  status: ('A' for Active; 'I' for Inactive)
REMARK    1  A    between atoms: C_1  and  O_2
REMARK    2  A    between atoms: O_2  and  C_3
REMARK    3  A    between atoms: C_10  and  C_11
REMARK    4  A    between atoms: C_12  and  O_13
REMARK    5  A    between atoms: N_19  and  C_20
REMARK                            x       y       z     vdW  Elec       q    Type
REMARK                         _______ _______ _______ _____ _____    ______ ____
ROOT
ATOM      1  C   UNL     1       2.283   2.445 -22.385  0.00  0.00    +0.162 A 
ATOM      2  C   UNL     1       2.883   2.727 -23.462  0.00  0.00    +0.050 A 
ATOM      3  C   UNL     1       2.236   3.042 -24.487  0.00  0.00    +0.008 A 
ATOM      4  C   UNL     1       0.982   3.079 -24.446  0.00  0.00    -0.034 A 
ATOM      5  C   UNL     1       0.367   2.801 -23.383  0.00  0.00    +0.012 A 
ATOM      6  C   UNL     1      -0.883   2.839 -23.345  0.00  0.00    +0.058 C 
ATOM      7  C   UNL     1      -2.299   2.848 -23.183  0.00  0.00    +0.067 C 
ATOM      8  C   UNL     1      -3.055   3.200 -24.322  0.00  0.00    +0.132 C 
ATOM      9  N   UNL     1      -2.351   3.508 -25.504  0.00  0.00    +0.236 N 
ATOM     10  H   UNL     1      -2.847   3.769 -26.357  0.00  0.00    +0.203 HD
ATOM     11  C   UNL     1      -2.946   3.829 -26.557  0.00  0.00    +0.190 C 
ATOM     12  C   UNL     1      -0.929   3.436 -25.444  0.00  0.00    +0.076 C 
ATOM     13  C   UNL     1      -1.533   3.154 -24.368  0.00  0.00    +0.075 C 
ATOM     14  C   UNL     1      -2.795   3.192 -24.328  0.00  0.00    -0.019 C 
ATOM     15  C   UNL     1      -3.399   2.914 -23.266  0.00  0.00    +0.004 C 
ATOM     16  C   UNL     1      -2.749   2.595 -22.230  0.00  0.00    +0.181 C 
ATOM     17  C   UNL     1      -1.499   2.557 -22.266  0.00  0.00    +0.148 C 
ATOM     18  C   UNL     1      -1.830   2.240 -21.102  0.00  0.00    +0.060 C 
ATOM     19  O   UNL     1      -0.218   2.294 -21.514  0.00  0.00    -0.478 OA
ATOM     20  C   UNL     1       0.320   3.399 -25.486  0.00  0.00    +0.090 C 
ATOM     21  C   UNL     1       1.016   2.483 -22.347  0.00  0.00    +0.167 A 
ENDROOT
BRANCH   1  23
ATOM     22  C   UNL     1       4.140   1.811 -21.462  0.00  0.00    +0.277 C 
ATOM     23  O   UNL     1       2.934   2.130 -21.364  0.00  0.00    -0.491 OA
ENDBRANCH   1  23
BRANCH  16  24
ATOM     24  O   UNL     1      -3.355   2.318 -21.169  0.00  0.00    -0.384 OA
ATOM     25  H   UNL     1      -3.486   1.358 -21.113  0.00  0.00    +0.210 HD
ENDBRANCH  16  24
TORSDOF 2
ENDMDL
MODEL 8
REMARK VINA RESULT:    -9.441      1.867      3.349
REMARK INTER + INTRA:         -10.403
REMARK INTER:                 -10.312
REMARK INTRA:                  -0.091
REMARK UNBOUND:                -0.134
REMARK  Name = COc1ccc2c3c1O[C@@]1(C)[C@@H](O)C=C[C@H]4[C@@H](C2)N(C)CC[C@]341      ZINC000100393604
REMARK  5 active torsions:
REMARK  status: ('A' for Active; 'I' for Inactive)
REMARK    1  A    between atoms: C_1  and  O_2
REMARK    2  A    between atoms: O_2  and  C_3
REMARK    3  A    between atoms: C_10  and  C_11
REMARK    4  A    between atoms: C_12  and  O_13
REMARK    5  A    between atoms: N_19  and  C_20
REMARK                            x       y       z     vdW  Elec       q    Type
REMARK                         _______ _______ _______ _____ _____    ______ ____
ROOT
ATOM      1  C   UNL     1       2.727   1.488 -21.335  0.00  0.00    +0.162 A 
ATOM      2  C   UNL     1       2.058   1.128 -20.324  0.00  0.00    +0.050 A 
ATOM      3  C   UNL     1       0.817   1.290 -20.292  0.00  0.00    +0.008 A 
ATOM      4  C   UNL     1       0.230   1.814 -21.270  0.00  0.00    -0.034 A 
ATOM      5  C   UNL     1       0.879   2.179 -22.286  0.00  0.00    +0.012 A 
ATOM      6  C   UNL     1       0.292   2.701 -23.259  0.00  0.00    +0.058 C 
ATOM      7  C   UNL     1      -0.266   3.305 -24.423  0.00  0.00    +0.067 C 
ATOM      8  C   UNL     1      -1.664   3.501 -24.415  0.00  0.00    +0.132 C 
ATOM      9  N   UNL     1      -2.376   3.086 -23.271  0.00  0.00    +0.236 N 
ATOM     10  H   UNL     1      -3.388   3.203 -23.210  0.00  0.00    +0.203 HD
ATOM     11  C   UNL     1      -3.616   3.224 -23.184  0.00  0.00    +0.190 C 
ATOM     12  C   UNL     1      -1.615   2.503 -22.216  0.00  0.00    +0.076 C 
ATOM     13  C   UNL     1      -0.949   2.865 -23.230  0.00  0.00    +0.075 C 
ATOM     14  C   UNL     1      -1.540   3.392 -24.214  0.00  0.00    -0.019 C 
ATOM     15  C   UNL     1      -0.887   3.752 -25.220  0.00  0.00    +0.004 C 
ATOM     16  C   UNL     1       0.366   3.591 -25.257  0.00  0.00    +0.181 C 
ATOM     17  C   UNL     1       0.954   3.069 -24.284  0.00  0.00    +0.148 C 
ATOM     18  C   UNL     1       1.835   3.327 -25.135  0.00  0.00    +0.060 C 
ATOM     19  O   UNL     1       2.266   2.615 -23.692  0.00  0.00    -0.478 OA
ATOM     20  C   UNL     1      -1.032   1.981 -21.241  0.00  0.00    +0.090 C 
ATOM     21  C   UNL     1       2.132   2.017 -22.322  0.00  0.00    +0.167 A 
ENDROOT
BRANCH   1  23
ATOM     22  C   UNL     1       4.730   2.313 -21.435  0.00  0.00    +0.277 C 
ATOM     23  O   UNL     1       3.967   1.324 -21.363  0.00  0.00    -0.491 OA
ENDBRANCH   1  23
BRANCH  16  24
ATOM     24  O   UNL     1       1.017   3.952 -26.264  0.00  0.00    -0.384 OA
ATOM     25  H   UNL     1       1.100   3.206 -26.879  0.00  0.00    +0.210 HD
ENDBRANCH  16  24
TORSDOF 2
ENDMDL
MODEL 9
REMARK VINA RESULT:    -8.800      2.700      6.051
REMARK INTER + INTRA:          -9.706
REMARK INTER:                  -9.572
REMARK INTRA:                  -0.134
REMARK UNBOUND:                -0.134
REMARK  Name = COc1ccc2c3c1O[C@@]1(C)[C@@H](O)C=C[C@H]4[C@@H](C2)N(C)CC[C@]341      ZINC000100393604
REMARK  5 active torsions:
REMARK  status: ('A' for Active; 'I' for Inactive)
REMARK    1  A    between atoms: C_1  and  O_2
REMARK    2  A    between atoms: O_2  and  C_3
REMARK    3  A    between atoms: C_10  and  C_11
REMARK    4  A    between atoms: C_12  and  O_13
REMARK    5  A    between atoms: N_19  and  C_20
REMARK                            x       y       z     vdW  Elec       q    Type
REMARK                         _______ _______ _______ _____ _____    ______ ____
ROOT
ATOM      1  C   UNL     1      -1.708   3.822 -23.217  0.00  0.00    +0.162 A 
ATOM      2  C   UNL     1      -2.250   2.785 -22.737  0.00  0.00    +0.050 A 
ATOM      3  C   UNL     1      -1.550   1.882 -22.225  0.00  0.00    +0.008 A 
ATOM      4  C   UNL     1      -0.302   2.004 -22.186  0.00  0.00    -0.034 A 
ATOM      5  C   UNL     1       0.256   3.030 -22.659  0.00  0.00    +0.012 A 
ATOM      6  C   UNL     1       1.500   3.150 -22.620  0.00  0.00    +0.058 C 
ATOM      7  C   UNL     1       2.904   3.395 -22.631  0.00  0.00    +0.067 C 
ATOM      8  C   UNL     1       3.718   2.393 -22.060  0.00  0.00    +0.132 C 
ATOM      9  N   UNL     1       3.078   1.252 -21.535  0.00  0.00    +0.236 N 
ATOM     10  H   UNL     1       3.616   0.496 -21.110  0.00  0.00    +0.203 HD
ATOM     11  C   UNL     1       3.726   0.319 -21.011  0.00  0.00    +0.190 C 
ATOM     12  C   UNL     1       1.656   1.211 -21.628  0.00  0.00    +0.076 C 
ATOM     13  C   UNL     1       2.202   2.248 -22.108  0.00  0.00    +0.075 C 
ATOM     14  C   UNL     1       3.459   2.370 -22.069  0.00  0.00    -0.019 C 
ATOM     15  C   UNL     1       4.005   3.393 -22.542  0.00  0.00    +0.004 C 
ATOM     16  C   UNL     1       3.304   4.308 -23.060  0.00  0.00    +0.181 C 
ATOM     17  C   UNL     1       2.059   4.189 -23.100  0.00  0.00    +0.148 C 
ATOM     18  C   UNL     1       2.328   5.289 -23.634  0.00  0.00    +0.060 C 
ATOM     19  O   UNL     1       0.741   4.798 -23.513  0.00  0.00    -0.478 OA
ATOM     20  C   UNL     1       0.412   1.088 -21.666  0.00  0.00    +0.090 C 
ATOM     21  C   UNL     1      -0.446   3.943 -23.177  0.00  0.00    +0.167 A 
ENDROOT
BRANCH   1  23
ATOM     22  C   UNL     1      -3.043   4.501 -24.785  0.00  0.00    +0.277 C 
ATOM     23  O   UNL     1      -2.410   4.722 -23.728  0.00  0.00    -0.491 OA
ENDBRANCH   1  23
BRANCH  16  24
ATOM     24  O   UNL     1       3.852   5.330 -23.532  0.00  0.00    -0.384 OA
ATOM     25  H   UNL     1       3.171   5.962 -23.813  0.00  0.00    +0.210 HD
ENDBRANCH  16  24
TORSDOF 2
ENDMDL
