MODEL 1
REMARK VINA RESULT:   -10.213      0.000      0.000
REMARK INTER + INTRA:         -10.213
REMARK INTER:                 -10.213
REMARK INTRA:                   0.000
REMARK UNBOUND:                 0.000
REMARK  Name = C=C1C(=O)O[C@@H]2C[C@]3(C)CCC[C@H](C)[C@]34O[C@@H]4[C@H]12           ZINC000105344684
REMARK  2 active torsions:
REMARK  status: ('A' for Active; 'I' for Inactive)
REMARK    1  A    between atoms: C_8  and  C_9
REMARK    2  A    between atoms: C_13  and  C_14
REMARK                            x       y       z     vdW  Elec       q    Type
REMARK                         _______ _______ _______ _____ _____    ______ ____
ROOT
ATOM      1  C   UNL     1       0.981   2.661 -24.218  0.00  0.00    +0.020 C 
ATOM      2  C   UNL     1       0.277   2.407 -23.154  0.00  0.00    +0.039 C 
ATOM      3  C   UNL     1       0.721   1.879 -22.052  0.00  0.00    +0.335 C 
ATOM      4  O   UNL     1      -0.275   1.782 -21.224  0.00  0.00    -0.457 OA
ATOM      5  C   UNL     1      -1.336   2.250 -21.813  0.00  0.00    +0.188 C 
ATOM      6  C   UNL     1      -2.567   2.374 -21.418  0.00  0.00    +0.055 C 
ATOM      7  C   UNL     1      -3.458   2.884 -22.216  0.00  0.00    +0.003 C 
ATOM      8  C   UNL     1      -4.690   3.008 -21.820  0.00  0.00    +0.010 C 
ATOM      9  C   UNL     1      -5.581   3.518 -22.618  0.00  0.00    +0.001 C 
ATOM     10  C   UNL     1      -5.239   3.905 -23.811  0.00  0.00    +0.006 C 
ATOM     11  C   UNL     1      -4.007   3.781 -24.207  0.00  0.00    +0.021 C 
ATOM     12  C   UNL     1      -3.665   4.167 -25.400  0.00  0.00    +0.010 C 
ATOM     13  C   UNL     1      -3.799   2.498 -21.023  0.00  0.00    +0.014 C 
ATOM     14  C   UNL     1      -3.116   3.270 -23.409  0.00  0.00    +0.105 C 
ATOM     15  O   UNL     1      -2.774   3.657 -24.603  0.00  0.00    -0.363 OA
ATOM     16  C   UNL     1      -1.884   3.146 -23.805  0.00  0.00    +0.163 C 
ATOM     17  O   UNL     1       1.946   1.513 -21.820  0.00  0.00    -0.245 OA
ATOM     18  C   UNL     1      -0.994   2.636 -23.006  0.00  0.00    +0.098 C 
ENDROOT
TORSDOF 0
ENDMDL
MODEL 2
REMARK VINA RESULT:   -10.030      1.269      2.605
REMARK INTER + INTRA:         -10.030
REMARK INTER:                 -10.030
REMARK INTRA:                   0.000
REMARK UNBOUND:                 0.000
REMARK  Name = C=C1C(=O)O[C@@H]2C[C@]3(C)CCC[C@H](C)[C@]34O[C@@H]4[C@H]12           ZINC000105344684
REMARK  2 active torsions:
REMARK  status: ('A' for Active; 'I' for Inactive)
REMARK    1  A    between atoms: C_8  and  C_9
REMARK    2  A    between atoms: C_13  and  C_14
REMARK                            x       y       z     vdW  Elec       q    Type
REMARK                         _______ _______ _______ _____ _____    ______ ____
ROOT
ATOM      1  C   UNL     1       0.100   1.513 -20.989  0.00  0.00    +0.020 C 
ATOM      2  C   UNL     1      -0.003   1.978 -22.199  0.00  0.00    +0.039 C 
ATOM      3  C   UNL     1       0.958   2.062 -23.070  0.00  0.00    +0.335 C 
ATOM      4  O   UNL     1       0.469   2.575 -24.160  0.00  0.00    -0.457 OA
ATOM      5  C   UNL     1      -0.795   2.809 -23.962  0.00  0.00    +0.188 C 
ATOM      6  C   UNL     1      -1.717   3.310 -24.728  0.00  0.00    +0.055 C 
ATOM      7  C   UNL     1      -2.932   3.442 -24.283  0.00  0.00    +0.003 C 
ATOM      8  C   UNL     1      -3.854   3.943 -25.050  0.00  0.00    +0.010 C 
ATOM      9  C   UNL     1      -5.068   4.075 -24.606  0.00  0.00    +0.001 C 
ATOM     10  C   UNL     1      -5.360   3.705 -23.394  0.00  0.00    +0.006 C 
ATOM     11  C   UNL     1      -4.438   3.204 -22.627  0.00  0.00    +0.021 C 
ATOM     12  C   UNL     1      -4.730   2.834 -21.415  0.00  0.00    +0.010 C 
ATOM     13  C   UNL     1      -2.639   3.811 -25.495  0.00  0.00    +0.014 C 
ATOM     14  C   UNL     1      -3.223   3.072 -23.072  0.00  0.00    +0.105 C 
ATOM     15  O   UNL     1      -3.515   2.703 -21.860  0.00  0.00    -0.363 OA
ATOM     16  C   UNL     1      -2.301   2.571 -22.305  0.00  0.00    +0.163 C 
ATOM     17  O   UNL     1       2.191   1.697 -22.885  0.00  0.00    -0.245 OA
ATOM     18  C   UNL     1      -1.086   2.439 -22.750  0.00  0.00    +0.098 C 
ENDROOT
TORSDOF 0
ENDMDL
MODEL 3
REMARK VINA RESULT:    -9.715      1.645      4.534
REMARK INTER + INTRA:          -9.715
REMARK INTER:                  -9.715
REMARK INTRA:                   0.000
REMARK UNBOUND:                 0.000
REMARK  Name = C=C1C(=O)O[C@@H]2C[C@]3(C)CCC[C@H](C)[C@]34O[C@@H]4[C@H]12           ZINC000105344684
REMARK  2 active torsions:
REMARK  status: ('A' for Active; 'I' for Inactive)
REMARK    1  A    between atoms: C_8  and  C_9
REMARK    2  A    between atoms: C_13  and  C_14
REMARK                            x       y       z     vdW  Elec       q    Type
REMARK                         _______ _______ _______ _____ _____    ______ ____
ROOT
ATOM      1  C   UNL     1      -4.795   4.211 -24.395  0.00  0.00    +0.020 C 
ATOM      2  C   UNL     1      -4.328   3.585 -23.355  0.00  0.00    +0.039 C 
ATOM      3  C   UNL     1      -5.011   3.223 -22.310  0.00  0.00    +0.335 C 
ATOM      4  O   UNL     1      -4.201   2.625 -21.488  0.00  0.00    -0.457 OA
ATOM      5  C   UNL     1      -3.016   2.617 -22.025  0.00  0.00    +0.188 C 
ATOM      6  C   UNL     1      -1.877   2.147 -21.613  0.00  0.00    +0.055 C 
ATOM      7  C   UNL     1      -0.816   2.270 -22.354  0.00  0.00    +0.003 C 
ATOM      8  C   UNL     1       0.324   1.799 -21.941  0.00  0.00    +0.010 C 
ATOM      9  C   UNL     1       1.384   1.922 -22.682  0.00  0.00    +0.001 C 
ATOM     10  C   UNL     1       1.306   2.516 -23.836  0.00  0.00    +0.006 C 
ATOM     11  C   UNL     1       0.167   2.986 -24.249  0.00  0.00    +0.021 C 
ATOM     12  C   UNL     1       0.088   3.580 -25.403  0.00  0.00    +0.010 C 
ATOM     13  C   UNL     1      -0.738   1.677 -21.200  0.00  0.00    +0.014 C 
ATOM     14  C   UNL     1      -0.895   2.863 -23.508  0.00  0.00    +0.105 C 
ATOM     15  O   UNL     1      -0.974   3.457 -24.662  0.00  0.00    -0.363 OA
ATOM     16  C   UNL     1      -2.034   3.334 -23.921  0.00  0.00    +0.163 C 
ATOM     17  O   UNL     1      -6.280   3.423 -22.120  0.00  0.00    -0.245 OA
ATOM     18  C   UNL     1      -3.095   3.211 -23.179  0.00  0.00    +0.098 C 
ENDROOT
TORSDOF 0
ENDMDL
MODEL 4
REMARK VINA RESULT:    -9.580      1.056      1.355
REMARK INTER + INTRA:          -9.580
REMARK INTER:                  -9.580
REMARK INTRA:                   0.000
REMARK UNBOUND:                 0.000
REMARK  Name = C=C1C(=O)O[C@@H]2C[C@]3(C)CCC[C@H](C)[C@]34O[C@@H]4[C@H]12           ZINC000105344684
REMARK  2 active torsions:
REMARK  status: ('A' for Active; 'I' for Inactive)
REMARK    1  A    between atoms: C_8  and  C_9
REMARK    2  A    between atoms: C_13  and  C_14
REMARK                            x       y       z     vdW  Elec       q    Type
REMARK                         _______ _______ _______ _____ _____    ______ ____
ROOT
ATOM      1  C   UNL     1       2.276   1.834 -23.468  0.00  0.00    +0.020 C 
ATOM      2  C   UNL     1       1.376   1.793 -22.531  0.00  0.00    +0.039 C 
ATOM      3  C   UNL     1       1.562   1.391 -21.309  0.00  0.00    +0.335 C 
ATOM      4  O   UNL     1       0.432   1.497 -20.675  0.00  0.00    -0.457 OA
ATOM      5  C   UNL     1      -0.453   1.964 -21.505  0.00  0.00    +0.188 C 
ATOM      6  C   UNL     1      -1.714   2.246 -21.366  0.00  0.00    +0.055 C 
ATOM      7  C   UNL     1      -2.392   2.712 -22.372  0.00  0.00    +0.003 C 
ATOM      8  C   UNL     1      -3.653   2.994 -22.232  0.00  0.00    +0.010 C 
ATOM      9  C   UNL     1      -4.331   3.459 -23.238  0.00  0.00    +0.001 C 
ATOM     10  C   UNL     1      -3.748   3.642 -24.386  0.00  0.00    +0.006 C 
ATOM     11  C   UNL     1      -2.487   3.360 -24.526  0.00  0.00    +0.021 C 
ATOM     12  C   UNL     1      -1.903   3.544 -25.673  0.00  0.00    +0.010 C 
ATOM     13  C   UNL     1      -2.975   2.528 -21.225  0.00  0.00    +0.014 C 
ATOM     14  C   UNL     1      -1.808   2.895 -23.519  0.00  0.00    +0.105 C 
ATOM     15  O   UNL     1      -1.225   3.078 -24.667  0.00  0.00    -0.363 OA
ATOM     16  C   UNL     1      -0.547   2.613 -23.660  0.00  0.00    +0.163 C 
ATOM     17  O   UNL     1       2.681   0.960 -20.809  0.00  0.00    -0.245 OA
ATOM     18  C   UNL     1       0.131   2.147 -22.652  0.00  0.00    +0.098 C 
ENDROOT
TORSDOF 0
ENDMDL
MODEL 5
REMARK VINA RESULT:    -9.506      1.355      5.093
REMARK INTER + INTRA:          -9.506
REMARK INTER:                  -9.506
REMARK INTRA:                   0.000
REMARK UNBOUND:                 0.000
REMARK  Name = C=C1C(=O)O[C@@H]2C[C@]3(C)CCC[C@H](C)[C@]34O[C@@H]4[C@H]12           ZINC000105344684
REMARK  2 active torsions:
REMARK  status: ('A' for Active; 'I' for Inactive)
REMARK    1  A    between atoms: C_8  and  C_9
REMARK    2  A    between atoms: C_13  and  C_14
REMARK                            x       y       z     vdW  Elec       q    Type
REMARK                         _______ _______ _______ _____ _____    ______ ____
ROOT
ATOM      1  C   UNL     1      -4.084   2.253 -20.580  0.00  0.00    +0.020 C 
ATOM      2  C   UNL     1      -3.969   2.751 -21.776  0.00  0.00    +0.039 C 
ATOM      3  C   UNL     1      -4.925   3.282 -22.478  0.00  0.00    +0.335 C 
ATOM      4  O   UNL     1      -4.425   3.664 -23.615  0.00  0.00    -0.457 OA
ATOM      5  C   UNL     1      -3.158   3.369 -23.616  0.00  0.00    +0.188 C 
ATOM      6  C   UNL     1      -2.225   3.541 -24.504  0.00  0.00    +0.055 C 
ATOM      7  C   UNL     1      -1.010   3.148 -24.256  0.00  0.00    +0.003 C 
ATOM      8  C   UNL     1      -0.078   3.321 -25.146  0.00  0.00    +0.010 C 
ATOM      9  C   UNL     1       1.136   2.928 -24.898  0.00  0.00    +0.001 C 
ATOM     10  C   UNL     1       1.418   2.364 -23.761  0.00  0.00    +0.006 C 
ATOM     11  C   UNL     1       0.485   2.191 -22.872  0.00  0.00    +0.021 C 
ATOM     12  C   UNL     1       0.766   1.627 -21.735  0.00  0.00    +0.010 C 
ATOM     13  C   UNL     1      -1.293   3.713 -25.393  0.00  0.00    +0.014 C 
ATOM     14  C   UNL     1      -0.729   2.584 -23.120  0.00  0.00    +0.105 C 
ATOM     15  O   UNL     1      -0.448   2.019 -21.983  0.00  0.00    -0.363 OA
ATOM     16  C   UNL     1      -1.662   2.411 -22.231  0.00  0.00    +0.163 C 
ATOM     17  O   UNL     1      -6.164   3.409 -22.108  0.00  0.00    -0.245 OA
ATOM     18  C   UNL     1      -2.877   2.804 -22.479  0.00  0.00    +0.098 C 
ENDROOT
TORSDOF 0
ENDMDL
MODEL 6
REMARK VINA RESULT:    -8.537      2.429      3.840
REMARK INTER + INTRA:          -8.537
REMARK INTER:                  -8.537
REMARK INTRA:                   0.000
REMARK UNBOUND:                 0.000
REMARK  Name = C=C1C(=O)O[C@@H]2C[C@]3(C)CCC[C@H](C)[C@]34O[C@@H]4[C@H]12           ZINC000105344684
REMARK  2 active torsions:
REMARK  status: ('A' for Active; 'I' for Inactive)
REMARK    1  A    between atoms: C_8  and  C_9
REMARK    2  A    between atoms: C_13  and  C_14
REMARK                            x       y       z     vdW  Elec       q    Type
REMARK                         _______ _______ _______ _____ _____    ______ ____
ROOT
ATOM      1  C   UNL     1       4.929   2.136 -22.696  0.00  0.00    +0.020 C 
ATOM      2  C   UNL     1       3.898   1.705 -22.031  0.00  0.00    +0.039 C 
ATOM      3  C   UNL     1       3.932   0.941 -20.980  0.00  0.00    +0.335 C 
ATOM      4  O   UNL     1       2.708   0.727 -20.600  0.00  0.00    -0.457 OA
ATOM      5  C   UNL     1       1.917   1.359 -21.416  0.00  0.00    +0.188 C 
ATOM      6  C   UNL     1       0.623   1.462 -21.468  0.00  0.00    +0.055 C 
ATOM      7  C   UNL     1       0.063   2.170 -22.405  0.00  0.00    +0.003 C 
ATOM      8  C   UNL     1      -1.232   2.273 -22.456  0.00  0.00    +0.010 C 
ATOM      9  C   UNL     1      -1.790   2.981 -23.392  0.00  0.00    +0.001 C 
ATOM     10  C   UNL     1      -1.055   3.586 -24.277  0.00  0.00    +0.006 C 
ATOM     11  C   UNL     1       0.240   3.483 -24.225  0.00  0.00    +0.021 C 
ATOM     12  C   UNL     1       0.977   4.088 -25.109  0.00  0.00    +0.010 C 
ATOM     13  C   UNL     1      -0.672   1.565 -21.520  0.00  0.00    +0.014 C 
ATOM     14  C   UNL     1       0.800   2.775 -23.289  0.00  0.00    +0.105 C 
ATOM     15  O   UNL     1       1.536   3.380 -24.173  0.00  0.00    -0.363 OA
ATOM     16  C   UNL     1       2.095   2.672 -23.237  0.00  0.00    +0.163 C 
ATOM     17  O   UNL     1       5.001   0.473 -20.410  0.00  0.00    -0.245 OA
ATOM     18  C   UNL     1       2.653   1.964 -22.300  0.00  0.00    +0.098 C 
ENDROOT
TORSDOF 0
ENDMDL
MODEL 7
REMARK VINA RESULT:    -8.484      1.332      5.503
REMARK INTER + INTRA:          -8.484
REMARK INTER:                  -8.484
REMARK INTRA:                   0.000
REMARK UNBOUND:                 0.000
REMARK  Name = C=C1C(=O)O[C@@H]2C[C@]3(C)CCC[C@H](C)[C@]34O[C@@H]4[C@H]12           ZINC000105344684
REMARK  2 active torsions:
REMARK  status: ('A' for Active; 'I' for Inactive)
REMARK    1  A    between atoms: C_8  and  C_9
REMARK    2  A    between atoms: C_13  and  C_14
REMARK                            x       y       z     vdW  Elec       q    Type
REMARK                         _______ _______ _______ _____ _____    ______ ____
ROOT
ATOM      1  C   UNL     1      -4.075   3.325 -23.222  0.00  0.00    +0.020 C 
ATOM      2  C   UNL     1      -3.147   3.484 -24.120  0.00  0.00    +0.039 C 
ATOM      3  C   UNL     1      -3.304   4.013 -25.296  0.00  0.00    +0.335 C 
ATOM      4  O   UNL     1      -2.154   3.998 -25.901  0.00  0.00    -0.457 OA
ATOM      5  C   UNL     1      -1.285   3.459 -25.097  0.00  0.00    +0.188 C 
ATOM      6  C   UNL     1      -0.015   3.216 -25.226  0.00  0.00    +0.055 C 
ATOM      7  C   UNL     1       0.642   2.655 -24.254  0.00  0.00    +0.003 C 
ATOM      8  C   UNL     1       1.913   2.412 -24.383  0.00  0.00    +0.010 C 
ATOM      9  C   UNL     1       2.569   1.852 -23.411  0.00  0.00    +0.001 C 
ATOM     10  C   UNL     1       1.955   1.534 -22.310  0.00  0.00    +0.006 C 
ATOM     11  C   UNL     1       0.685   1.777 -22.181  0.00  0.00    +0.021 C 
ATOM     12  C   UNL     1       0.070   1.459 -21.080  0.00  0.00    +0.010 C 
ATOM     13  C   UNL     1       1.256   2.973 -25.355  0.00  0.00    +0.014 C 
ATOM     14  C   UNL     1       0.028   2.337 -23.153  0.00  0.00    +0.105 C 
ATOM     15  O   UNL     1      -0.587   2.020 -22.052  0.00  0.00    -0.363 OA
ATOM     16  C   UNL     1      -1.243   2.580 -23.024  0.00  0.00    +0.163 C 
ATOM     17  O   UNL     1      -4.416   4.477 -25.783  0.00  0.00    -0.245 OA
ATOM     18  C   UNL     1      -1.899   3.141 -23.997  0.00  0.00    +0.098 C 
ENDROOT
TORSDOF 0
ENDMDL
MODEL 8
REMARK VINA RESULT:    -8.267      2.237      4.492
REMARK INTER + INTRA:          -8.267
REMARK INTER:                  -8.267
REMARK INTRA:                   0.000
REMARK UNBOUND:                 0.000
REMARK  Name = C=C1C(=O)O[C@@H]2C[C@]3(C)CCC[C@H](C)[C@]34O[C@@H]4[C@H]12           ZINC000105344684
REMARK  2 active torsions:
REMARK  status: ('A' for Active; 'I' for Inactive)
REMARK    1  A    between atoms: C_8  and  C_9
REMARK    2  A    between atoms: C_13  and  C_14
REMARK                            x       y       z     vdW  Elec       q    Type
REMARK                         _______ _______ _______ _____ _____    ______ ____
ROOT
ATOM      1  C   UNL     1       3.560   1.509 -20.938  0.00  0.00    +0.020 C 
ATOM      2  C   UNL     1       3.524   2.137 -22.076  0.00  0.00    +0.039 C 
ATOM      3  C   UNL     1       4.553   2.548 -22.755  0.00  0.00    +0.335 C 
ATOM      4  O   UNL     1       4.117   3.130 -23.833  0.00  0.00    -0.457 OA
ATOM      5  C   UNL     1       2.817   3.078 -23.820  0.00  0.00    +0.188 C 
ATOM      6  C   UNL     1       1.921   3.510 -24.655  0.00  0.00    +0.055 C 
ATOM      7  C   UNL     1       0.657   3.329 -24.406  0.00  0.00    +0.003 C 
ATOM      8  C   UNL     1      -0.239   3.761 -25.242  0.00  0.00    +0.010 C 
ATOM      9  C   UNL     1      -1.501   3.580 -24.993  0.00  0.00    +0.001 C 
ATOM     10  C   UNL     1      -1.868   2.967 -23.907  0.00  0.00    +0.006 C 
ATOM     11  C   UNL     1      -0.972   2.534 -23.070  0.00  0.00    +0.021 C 
ATOM     12  C   UNL     1      -1.338   1.921 -21.984  0.00  0.00    +0.010 C 
ATOM     13  C   UNL     1       1.024   3.942 -25.492  0.00  0.00    +0.014 C 
ATOM     14  C   UNL     1       0.292   2.715 -23.320  0.00  0.00    +0.105 C 
ATOM     15  O   UNL     1      -0.074   2.102 -22.234  0.00  0.00    -0.363 OA
ATOM     16  C   UNL     1       1.188   2.283 -22.483  0.00  0.00    +0.163 C 
ATOM     17  O   UNL     1       5.799   2.404 -22.417  0.00  0.00    -0.245 OA
ATOM     18  C   UNL     1       2.451   2.465 -22.733  0.00  0.00    +0.098 C 
ENDROOT
TORSDOF 0
ENDMDL
MODEL 9
REMARK VINA RESULT:    -7.983      2.594      6.147
REMARK INTER + INTRA:          -7.983
REMARK INTER:                  -7.983
REMARK INTRA:                   0.000
REMARK UNBOUND:                 0.000
REMARK  Name = C=C1C(=O)O[C@@H]2C[C@]3(C)CCC[C@H](C)[C@]34O[C@@H]4[C@H]12           ZINC000105344684
REMARK  2 active torsions:
REMARK  status: ('A' for Active; 'I' for Inactive)
REMARK    1  A    between atoms: C_8  and  C_9
REMARK    2  A    between atoms: C_13  and  C_14
REMARK                            x       y       z     vdW  Elec       q    Type
REMARK                         _______ _______ _______ _____ _____    ______ ____
ROOT
ATOM      1  C   UNL     1      -1.002   4.692 -23.226  0.00  0.00    +0.020 C 
ATOM      2  C   UNL     1      -0.624   3.476 -22.965  0.00  0.00    +0.039 C 
ATOM      3  C   UNL     1      -1.407   2.455 -22.779  0.00  0.00    +0.335 C 
ATOM      4  O   UNL     1      -0.663   1.416 -22.544  0.00  0.00    -0.457 OA
ATOM      5  C   UNL     1       0.581   1.794 -22.585  0.00  0.00    +0.188 C 
ATOM      6  C   UNL     1       1.694   1.145 -22.418  0.00  0.00    +0.055 C 
ATOM      7  C   UNL     1       2.831   1.767 -22.512  0.00  0.00    +0.003 C 
ATOM      8  C   UNL     1       3.945   1.117 -22.345  0.00  0.00    +0.010 C 
ATOM      9  C   UNL     1       5.081   1.740 -22.439  0.00  0.00    +0.001 C 
ATOM     10  C   UNL     1       5.106   3.013 -22.699  0.00  0.00    +0.006 C 
ATOM     11  C   UNL     1       3.992   3.664 -22.866  0.00  0.00    +0.021 C 
ATOM     12  C   UNL     1       4.016   4.937 -23.126  0.00  0.00    +0.010 C 
ATOM     13  C   UNL     1       2.807   0.494 -22.252  0.00  0.00    +0.014 C 
ATOM     14  C   UNL     1       2.855   3.041 -22.772  0.00  0.00    +0.105 C 
ATOM     15  O   UNL     1       2.878   4.314 -23.033  0.00  0.00    -0.363 OA
ATOM     16  C   UNL     1       1.742   3.691 -22.939  0.00  0.00    +0.163 C 
ATOM     17  O   UNL     1      -2.705   2.470 -22.821  0.00  0.00    -0.245 OA
ATOM     18  C   UNL     1       0.604   3.068 -22.845  0.00  0.00    +0.098 C 
ENDROOT
TORSDOF 0
ENDMDL
