MODEL 1
REMARK VINA RESULT:    -8.793      0.000      0.000
REMARK INTER + INTRA:         -10.149
REMARK INTER:                  -9.808
REMARK INTRA:                  -0.341
REMARK UNBOUND:                -0.328
REMARK  Name = c1ccc(/N=c2\cc(-c3ccc4c(c3)OCCO4)oc3ccccc23)cc1                      ZINC000100392647
REMARK  2 active torsions:
REMARK  status: ('A' for Active; 'I' for Inactive)
REMARK    1  A    between atoms: C_4  and  N_5
REMARK    2  A    between atoms: C_8  and  C_9
REMARK                            x       y       z     vdW  Elec       q    Type
REMARK                         _______ _______ _______ _____ _____    ______ ____
ROOT
ATOM      1  N   UNL     1      -3.943   3.288 -23.080  0.00  0.00    -0.247 NA
ATOM      2  C   UNL     1      -2.903   3.319 -23.859  0.00  0.00    +0.079 A 
ATOM      3  C   UNL     1      -1.707   3.287 -23.350  0.00  0.00    +0.075 A 
ATOM      4  C   UNL     1      -0.667   3.318 -24.129  0.00  0.00    +0.138 A 
ATOM      5  O   UNL     1      -0.822   3.380 -25.418  0.00  0.00    -0.455 OA
ATOM      6  C   UNL     1      -2.017   3.413 -25.929  0.00  0.00    +0.138 A 
ATOM      7  C   UNL     1      -2.173   3.475 -27.218  0.00  0.00    +0.047 A 
ATOM      8  C   UNL     1      -3.368   3.508 -27.727  0.00  0.00    +0.004 A 
ATOM      9  C   UNL     1      -4.408   3.477 -26.948  0.00  0.00    +0.001 A 
ATOM     10  C   UNL     1      -4.253   3.414 -25.659  0.00  0.00    +0.013 A 
ATOM     11  C   UNL     1      -3.058   3.382 -25.150  0.00  0.00    +0.043 A 
ENDROOT
BRANCH   4  12
ATOM     12  C   UNL     1       0.528   3.285 -23.619  0.00  0.00    +0.021 A 
ATOM     13  C   UNL     1       1.311   4.317 -23.733  0.00  0.00    +0.015 A 
ATOM     14  C   UNL     1       2.507   4.285 -23.223  0.00  0.00    +0.050 A 
ATOM     15  C   UNL     1       2.919   3.222 -22.600  0.00  0.00    +0.162 A 
ATOM     16  C   UNL     1       2.137   2.190 -22.486  0.00  0.00    +0.163 A 
ATOM     17  O   UNL     1       2.549   1.127 -21.862  0.00  0.00    -0.485 OA
ATOM     18  C   UNL     1       3.745   1.095 -21.353  0.00  0.00    +0.270 C 
ATOM     19  C   UNL     1       4.527   2.126 -21.467  0.00  0.00    +0.270 C 
ATOM     20  O   UNL     1       4.115   3.190 -22.090  0.00  0.00    -0.485 OA
ATOM     21  C   UNL     1       0.941   2.222 -22.996  0.00  0.00    +0.061 A 
ENDBRANCH   4  12
BRANCH   1  25
ATOM     22  C   UNL     1      -3.477   3.100 -19.213  0.00  0.00    +0.000 A 
ATOM     23  C   UNL     1      -4.153   2.178 -19.832  0.00  0.00    +0.002 A 
ATOM     24  C   UNL     1      -4.308   2.241 -21.121  0.00  0.00    +0.028 A 
ATOM     25  C   UNL     1      -3.788   3.225 -21.791  0.00  0.00    +0.065 A 
ATOM     26  C   UNL     1      -3.112   4.147 -21.173  0.00  0.00    +0.028 A 
ATOM     27  C   UNL     1      -2.956   4.085 -19.883  0.00  0.00    +0.002 A 
ENDBRANCH   1  25
TORSDOF 2
ENDMDL
MODEL 2
REMARK VINA RESULT:    -7.723      3.317      6.109
REMARK INTER + INTRA:          -8.954
REMARK INTER:                  -8.435
REMARK INTRA:                  -0.519
REMARK UNBOUND:                -0.328
REMARK  Name = c1ccc(/N=c2\cc(-c3ccc4c(c3)OCCO4)oc3ccccc23)cc1                      ZINC000100392647
REMARK  2 active torsions:
REMARK  status: ('A' for Active; 'I' for Inactive)
REMARK    1  A    between atoms: C_4  and  N_5
REMARK    2  A    between atoms: C_8  and  C_9
REMARK                            x       y       z     vdW  Elec       q    Type
REMARK                         _______ _______ _______ _____ _____    ______ ____
ROOT
ATOM      1  N   UNL     1       1.967   1.591 -22.688  0.00  0.00    -0.247 NA
ATOM      2  C   UNL     1       1.830   2.864 -22.915  0.00  0.00    +0.079 A 
ATOM      3  C   UNL     1       2.811   3.678 -22.663  0.00  0.00    +0.075 A 
ATOM      4  C   UNL     1       2.674   4.951 -22.891  0.00  0.00    +0.138 A 
ATOM      5  O   UNL     1       1.556   5.409 -23.369  0.00  0.00    -0.455 OA
ATOM      6  C   UNL     1       0.574   4.595 -23.621  0.00  0.00    +0.138 A 
ATOM      7  C   UNL     1      -0.544   5.053 -24.100  0.00  0.00    +0.047 A 
ATOM      8  C   UNL     1      -1.525   4.239 -24.352  0.00  0.00    +0.004 A 
ATOM      9  C   UNL     1      -1.388   2.966 -24.125  0.00  0.00    +0.001 A 
ATOM     10  C   UNL     1      -0.270   2.508 -23.646  0.00  0.00    +0.013 A 
ATOM     11  C   UNL     1       0.711   3.322 -23.394  0.00  0.00    +0.043 A 
ENDROOT
BRANCH   4  12
ATOM     12  C   UNL     1       3.655   5.765 -22.639  0.00  0.00    +0.021 A 
ATOM     13  C   UNL     1       4.883   5.337 -22.676  0.00  0.00    +0.015 A 
ATOM     14  C   UNL     1       5.864   6.151 -22.424  0.00  0.00    +0.050 A 
ATOM     15  C   UNL     1       5.619   7.395 -22.136  0.00  0.00    +0.162 A 
ATOM     16  C   UNL     1       4.392   7.824 -22.099  0.00  0.00    +0.163 A 
ATOM     17  O   UNL     1       4.147   9.067 -21.810  0.00  0.00    -0.485 OA
ATOM     18  C   UNL     1       5.128   9.882 -21.558  0.00  0.00    +0.270 C 
ATOM     19  C   UNL     1       6.354   9.453 -21.596  0.00  0.00    +0.270 C 
ATOM     20  O   UNL     1       6.600   8.209 -21.884  0.00  0.00    -0.485 OA
ATOM     21  C   UNL     1       3.410   7.009 -22.350  0.00  0.00    +0.061 A 
ENDBRANCH   4  12
BRANCH   1  25
ATOM     22  C   UNL     1       5.322   0.217 -21.252  0.00  0.00    +0.000 A 
ATOM     23  C   UNL     1       4.239   0.170 -20.533  0.00  0.00    +0.002 A 
ATOM     24  C   UNL     1       3.121   0.628 -21.012  0.00  0.00    +0.028 A 
ATOM     25  C   UNL     1       3.085   1.133 -22.209  0.00  0.00    +0.065 A 
ATOM     26  C   UNL     1       4.167   1.180 -22.928  0.00  0.00    +0.028 A 
ATOM     27  C   UNL     1       5.286   0.722 -22.449  0.00  0.00    +0.002 A 
ENDBRANCH   1  25
TORSDOF 2
ENDMDL
MODEL 3
REMARK VINA RESULT:    -7.679      5.019      9.750
REMARK INTER + INTRA:          -8.905
REMARK INTER:                  -8.268
REMARK INTRA:                  -0.636
REMARK UNBOUND:                -0.328
REMARK  Name = c1ccc(/N=c2\cc(-c3ccc4c(c3)OCCO4)oc3ccccc23)cc1                      ZINC000100392647
REMARK  2 active torsions:
REMARK  status: ('A' for Active; 'I' for Inactive)
REMARK    1  A    between atoms: C_4  and  N_5
REMARK    2  A    between atoms: C_8  and  C_9
REMARK                            x       y       z     vdW  Elec       q    Type
REMARK                         _______ _______ _______ _____ _____    ______ ____
ROOT
ATOM      1  N   UNL     1       8.410   5.752 -23.483  0.00  0.00    -0.247 NA
ATOM      2  C   UNL     1       7.219   5.950 -23.000  0.00  0.00    +0.079 A 
ATOM      3  C   UNL     1       6.246   5.151 -23.322  0.00  0.00    +0.075 A 
ATOM      4  C   UNL     1       5.055   5.350 -22.840  0.00  0.00    +0.138 A 
ATOM      5  O   UNL     1       4.838   6.348 -22.036  0.00  0.00    -0.455 OA
ATOM      6  C   UNL     1       5.810   7.148 -21.714  0.00  0.00    +0.138 A 
ATOM      7  C   UNL     1       5.593   8.146 -20.910  0.00  0.00    +0.047 A 
ATOM      8  C   UNL     1       6.566   8.945 -20.589  0.00  0.00    +0.004 A 
ATOM      9  C   UNL     1       7.757   8.747 -21.071  0.00  0.00    +0.001 A 
ATOM     10  C   UNL     1       7.974   7.749 -21.874  0.00  0.00    +0.013 A 
ATOM     11  C   UNL     1       7.001   6.949 -22.196  0.00  0.00    +0.043 A 
ENDROOT
BRANCH   4  12
ATOM     12  C   UNL     1       4.082   4.551 -23.161  0.00  0.00    +0.021 A 
ATOM     13  C   UNL     1       4.336   3.326 -23.516  0.00  0.00    +0.015 A 
ATOM     14  C   UNL     1       3.363   2.527 -23.837  0.00  0.00    +0.050 A 
ATOM     15  C   UNL     1       2.135   2.952 -23.805  0.00  0.00    +0.162 A 
ATOM     16  C   UNL     1       1.880   4.176 -23.451  0.00  0.00    +0.163 A 
ATOM     17  O   UNL     1       0.652   4.601 -23.418  0.00  0.00    -0.485 OA
ATOM     18  C   UNL     1      -0.322   3.802 -23.739  0.00  0.00    +0.270 C 
ATOM     19  C   UNL     1      -0.067   2.578 -24.094  0.00  0.00    +0.270 C 
ATOM     20  O   UNL     1       1.161   2.153 -24.126  0.00  0.00    -0.485 OA
ATOM     21  C   UNL     1       2.853   4.976 -23.129  0.00  0.00    +0.061 A 
ENDBRANCH   4  12
BRANCH   1  25
ATOM     22  C   UNL     1       9.062   2.757 -25.893  0.00  0.00    +0.000 A 
ATOM     23  C   UNL     1       8.918   3.957 -26.372  0.00  0.00    +0.002 A 
ATOM     24  C   UNL     1       8.700   4.955 -25.568  0.00  0.00    +0.028 A 
ATOM     25  C   UNL     1       8.627   4.754 -24.286  0.00  0.00    +0.065 A 
ATOM     26  C   UNL     1       8.772   3.554 -23.808  0.00  0.00    +0.028 A 
ATOM     27  C   UNL     1       8.990   2.555 -24.611  0.00  0.00    +0.002 A 
ENDBRANCH   1  25
TORSDOF 2
ENDMDL
MODEL 4
REMARK VINA RESULT:    -7.616      5.426     10.346
REMARK INTER + INTRA:          -8.834
REMARK INTER:                  -8.289
REMARK INTRA:                  -0.546
REMARK UNBOUND:                -0.328
REMARK  Name = c1ccc(/N=c2\cc(-c3ccc4c(c3)OCCO4)oc3ccccc23)cc1                      ZINC000100392647
REMARK  2 active torsions:
REMARK  status: ('A' for Active; 'I' for Inactive)
REMARK    1  A    between atoms: C_4  and  N_5
REMARK    2  A    between atoms: C_8  and  C_9
REMARK                            x       y       z     vdW  Elec       q    Type
REMARK                         _______ _______ _______ _____ _____    ______ ____
ROOT
ATOM      1  N   UNL     1       8.912   6.069 -23.978  0.00  0.00    -0.247 NA
ATOM      2  C   UNL     1       7.930   5.813 -23.165  0.00  0.00    +0.079 A 
ATOM      3  C   UNL     1       6.899   5.142 -23.583  0.00  0.00    +0.075 A 
ATOM      4  C   UNL     1       5.917   4.886 -22.770  0.00  0.00    +0.138 A 
ATOM      5  O   UNL     1       5.967   5.301 -21.539  0.00  0.00    -0.455 OA
ATOM      6  C   UNL     1       6.999   5.972 -21.120  0.00  0.00    +0.138 A 
ATOM      7  C   UNL     1       7.049   6.386 -19.889  0.00  0.00    +0.047 A 
ATOM      8  C   UNL     1       8.081   7.057 -19.471  0.00  0.00    +0.004 A 
ATOM      9  C   UNL     1       9.062   7.313 -20.284  0.00  0.00    +0.001 A 
ATOM     10  C   UNL     1       9.012   6.899 -21.515  0.00  0.00    +0.013 A 
ATOM     11  C   UNL     1       7.980   6.228 -21.933  0.00  0.00    +0.043 A 
ENDROOT
BRANCH   4  12
ATOM     12  C   UNL     1       4.885   4.215 -23.188  0.00  0.00    +0.021 A 
ATOM     13  C   UNL     1       5.032   2.996 -23.616  0.00  0.00    +0.015 A 
ATOM     14  C   UNL     1       4.000   2.325 -24.034  0.00  0.00    +0.050 A 
ATOM     15  C   UNL     1       2.821   2.873 -24.024  0.00  0.00    +0.162 A 
ATOM     16  C   UNL     1       2.674   4.091 -23.597  0.00  0.00    +0.163 A 
ATOM     17  O   UNL     1       1.495   4.639 -23.587  0.00  0.00    -0.485 OA
ATOM     18  C   UNL     1       0.463   3.968 -24.005  0.00  0.00    +0.270 C 
ATOM     19  C   UNL     1       0.610   2.750 -24.433  0.00  0.00    +0.270 C 
ATOM     20  O   UNL     1       1.789   2.202 -24.442  0.00  0.00    -0.485 OA
ATOM     21  C   UNL     1       3.706   4.763 -23.178  0.00  0.00    +0.061 A 
ENDBRANCH   4  12
BRANCH   1  25
ATOM     22  C   UNL     1       8.762   4.825 -27.671  0.00  0.00    +0.000 A 
ATOM     23  C   UNL     1       8.588   6.086 -27.401  0.00  0.00    +0.002 A 
ATOM     24  C   UNL     1       8.638   6.500 -26.170  0.00  0.00    +0.028 A 
ATOM     25  C   UNL     1       8.862   5.655 -25.208  0.00  0.00    +0.065 A 
ATOM     26  C   UNL     1       9.035   4.395 -25.477  0.00  0.00    +0.028 A 
ATOM     27  C   UNL     1       8.985   3.980 -26.709  0.00  0.00    +0.002 A 
ENDBRANCH   1  25
TORSDOF 2
ENDMDL
MODEL 5
REMARK VINA RESULT:    -6.874      5.017      8.614
REMARK INTER + INTRA:          -8.006
REMARK INTER:                  -7.949
REMARK INTRA:                  -0.057
REMARK UNBOUND:                -0.328
REMARK  Name = c1ccc(/N=c2\cc(-c3ccc4c(c3)OCCO4)oc3ccccc23)cc1                      ZINC000100392647
REMARK  2 active torsions:
REMARK  status: ('A' for Active; 'I' for Inactive)
REMARK    1  A    between atoms: C_4  and  N_5
REMARK    2  A    between atoms: C_8  and  C_9
REMARK                            x       y       z     vdW  Elec       q    Type
REMARK                         _______ _______ _______ _____ _____    ______ ____
ROOT
ATOM      1  N   UNL     1       4.118   3.788 -23.359  0.00  0.00    -0.247 NA
ATOM      2  C   UNL     1       4.928   4.744 -23.012  0.00  0.00    +0.079 A 
ATOM      3  C   UNL     1       4.453   5.867 -22.562  0.00  0.00    +0.075 A 
ATOM      4  C   UNL     1       5.263   6.823 -22.214  0.00  0.00    +0.138 A 
ATOM      5  O   UNL     1       6.548   6.655 -22.316  0.00  0.00    -0.455 OA
ATOM      6  C   UNL     1       7.024   5.532 -22.765  0.00  0.00    +0.138 A 
ATOM      7  C   UNL     1       8.309   5.365 -22.867  0.00  0.00    +0.047 A 
ATOM      8  C   UNL     1       8.784   4.241 -23.316  0.00  0.00    +0.004 A 
ATOM      9  C   UNL     1       7.974   3.286 -23.664  0.00  0.00    +0.001 A 
ATOM     10  C   UNL     1       6.689   3.453 -23.563  0.00  0.00    +0.013 A 
ATOM     11  C   UNL     1       6.214   4.577 -23.113  0.00  0.00    +0.043 A 
ENDROOT
BRANCH   4  12
ATOM     12  C   UNL     1       4.788   7.946 -21.765  0.00  0.00    +0.021 A 
ATOM     13  C   UNL     1       4.605   8.111 -20.488  0.00  0.00    +0.015 A 
ATOM     14  C   UNL     1       4.131   9.234 -20.038  0.00  0.00    +0.050 A 
ATOM     15  C   UNL     1       3.838  10.193 -20.865  0.00  0.00    +0.162 A 
ATOM     16  C   UNL     1       4.020  10.030 -22.141  0.00  0.00    +0.163 A 
ATOM     17  O   UNL     1       3.727  10.989 -22.968  0.00  0.00    -0.485 OA
ATOM     18  C   UNL     1       3.252  12.112 -22.518  0.00  0.00    +0.270 C 
ATOM     19  C   UNL     1       3.070  12.276 -21.242  0.00  0.00    +0.270 C 
ATOM     20  O   UNL     1       3.363  11.317 -20.415  0.00  0.00    -0.485 OA
ATOM     21  C   UNL     1       4.495   8.906 -22.591  0.00  0.00    +0.061 A 
ENDBRANCH   4  12
BRANCH   1  25
ATOM     22  C   UNL     1       0.263   4.291 -23.054  0.00  0.00    +0.000 A 
ATOM     23  C   UNL     1       1.003   5.229 -23.568  0.00  0.00    +0.002 A 
ATOM     24  C   UNL     1       2.288   5.062 -23.670  0.00  0.00    +0.028 A 
ATOM     25  C   UNL     1       2.834   3.956 -23.258  0.00  0.00    +0.065 A 
ATOM     26  C   UNL     1       2.095   3.018 -22.744  0.00  0.00    +0.028 A 
ATOM     27  C   UNL     1       0.809   3.185 -22.642  0.00  0.00    +0.002 A 
ENDBRANCH   1  25
TORSDOF 2
ENDMDL
MODEL 6
REMARK VINA RESULT:    -6.320      3.183      7.818
REMARK INTER + INTRA:          -7.387
REMARK INTER:                  -7.073
REMARK INTRA:                  -0.314
REMARK UNBOUND:                -0.328
REMARK  Name = c1ccc(/N=c2\cc(-c3ccc4c(c3)OCCO4)oc3ccccc23)cc1                      ZINC000100392647
REMARK  2 active torsions:
REMARK  status: ('A' for Active; 'I' for Inactive)
REMARK    1  A    between atoms: C_4  and  N_5
REMARK    2  A    between atoms: C_8  and  C_9
REMARK                            x       y       z     vdW  Elec       q    Type
REMARK                         _______ _______ _______ _____ _____    ______ ____
ROOT
ATOM      1  N   UNL     1       5.511   4.245 -21.779  0.00  0.00    -0.247 NA
ATOM      2  C   UNL     1       4.592   5.057 -22.209  0.00  0.00    +0.079 A 
ATOM      3  C   UNL     1       3.504   4.586 -22.742  0.00  0.00    +0.075 A 
ATOM      4  C   UNL     1       2.585   5.399 -23.172  0.00  0.00    +0.138 A 
ATOM      5  O   UNL     1       2.754   6.683 -23.069  0.00  0.00    -0.455 OA
ATOM      6  C   UNL     1       3.842   7.156 -22.536  0.00  0.00    +0.138 A 
ATOM      7  C   UNL     1       4.011   8.441 -22.433  0.00  0.00    +0.047 A 
ATOM      8  C   UNL     1       5.098   8.912 -21.900  0.00  0.00    +0.004 A 
ATOM      9  C   UNL     1       6.017   8.099 -21.470  0.00  0.00    +0.001 A 
ATOM     10  C   UNL     1       5.848   6.815 -21.573  0.00  0.00    +0.013 A 
ATOM     11  C   UNL     1       4.761   6.343 -22.106  0.00  0.00    +0.043 A 
ENDROOT
BRANCH   4  12
ATOM     12  C   UNL     1       1.498   4.927 -23.705  0.00  0.00    +0.021 A 
ATOM     13  C   UNL     1       1.540   4.358 -24.874  0.00  0.00    +0.015 A 
ATOM     14  C   UNL     1       0.452   3.886 -25.407  0.00  0.00    +0.050 A 
ATOM     15  C   UNL     1      -0.678   3.984 -24.772  0.00  0.00    +0.162 A 
ATOM     16  C   UNL     1      -0.721   4.552 -23.604  0.00  0.00    +0.163 A 
ATOM     17  O   UNL     1      -1.851   4.650 -22.970  0.00  0.00    -0.485 OA
ATOM     18  C   UNL     1      -2.939   4.178 -23.502  0.00  0.00    +0.270 C 
ATOM     19  C   UNL     1      -2.896   3.609 -24.670  0.00  0.00    +0.270 C 
ATOM     20  O   UNL     1      -1.766   3.512 -25.305  0.00  0.00    -0.485 OA
ATOM     21  C   UNL     1       0.368   5.025 -23.071  0.00  0.00    +0.061 A 
ENDBRANCH   4  12
BRANCH   1  25
ATOM     22  C   UNL     1       5.004   0.390 -22.089  0.00  0.00    +0.000 A 
ATOM     23  C   UNL     1       5.209   0.928 -20.922  0.00  0.00    +0.002 A 
ATOM     24  C   UNL     1       5.378   2.212 -20.819  0.00  0.00    +0.028 A 
ATOM     25  C   UNL     1       5.342   2.960 -21.882  0.00  0.00    +0.065 A 
ATOM     26  C   UNL     1       5.137   2.423 -23.048  0.00  0.00    +0.028 A 
ATOM     27  C   UNL     1       4.968   1.138 -23.152  0.00  0.00    +0.002 A 
ENDBRANCH   1  25
TORSDOF 2
ENDMDL
MODEL 7
REMARK VINA RESULT:    -5.910      1.250      4.404
REMARK INTER + INTRA:          -6.929
REMARK INTER:                  -7.734
REMARK INTRA:                   0.805
REMARK UNBOUND:                -0.328
REMARK  Name = c1ccc(/N=c2\cc(-c3ccc4c(c3)OCCO4)oc3ccccc23)cc1                      ZINC000100392647
REMARK  2 active torsions:
REMARK  status: ('A' for Active; 'I' for Inactive)
REMARK    1  A    between atoms: C_4  and  N_5
REMARK    2  A    between atoms: C_8  and  C_9
REMARK                            x       y       z     vdW  Elec       q    Type
REMARK                         _______ _______ _______ _____ _____    ______ ____
ROOT
ATOM      1  N   UNL     1      -3.986   3.188 -24.272  0.00  0.00    -0.247 NA
ATOM      2  C   UNL     1      -3.118   3.254 -23.307  0.00  0.00    +0.079 A 
ATOM      3  C   UNL     1      -1.858   3.429 -23.577  0.00  0.00    +0.075 A 
ATOM      4  C   UNL     1      -0.989   3.495 -22.612  0.00  0.00    +0.138 A 
ATOM      5  O   UNL     1      -1.380   3.386 -21.377  0.00  0.00    -0.455 OA
ATOM      6  C   UNL     1      -2.640   3.212 -21.106  0.00  0.00    +0.138 A 
ATOM      7  C   UNL     1      -3.031   3.103 -19.871  0.00  0.00    +0.047 A 
ATOM      8  C   UNL     1      -4.290   2.929 -19.601  0.00  0.00    +0.004 A 
ATOM      9  C   UNL     1      -5.159   2.863 -20.566  0.00  0.00    +0.001 A 
ATOM     10  C   UNL     1      -4.768   2.971 -21.801  0.00  0.00    +0.013 A 
ATOM     11  C   UNL     1      -3.508   3.146 -22.071  0.00  0.00    +0.043 A 
ENDROOT
BRANCH   4  12
ATOM     12  C   UNL     1       0.270   3.669 -22.881  0.00  0.00    +0.021 A 
ATOM     13  C   UNL     1       0.679   4.801 -23.374  0.00  0.00    +0.015 A 
ATOM     14  C   UNL     1       1.938   4.976 -23.644  0.00  0.00    +0.050 A 
ATOM     15  C   UNL     1       2.790   4.019 -23.421  0.00  0.00    +0.162 A 
ATOM     16  C   UNL     1       2.382   2.888 -22.929  0.00  0.00    +0.163 A 
ATOM     17  O   UNL     1       3.233   1.931 -22.706  0.00  0.00    -0.485 OA
ATOM     18  C   UNL     1       4.492   2.106 -22.975  0.00  0.00    +0.270 C 
ATOM     19  C   UNL     1       4.900   3.237 -23.468  0.00  0.00    +0.270 C 
ATOM     20  O   UNL     1       4.049   4.194 -23.691  0.00  0.00    -0.485 OA
ATOM     21  C   UNL     1       1.121   2.713 -22.659  0.00  0.00    +0.061 A 
ENDBRANCH   4  12
BRANCH   1  25
ATOM     22  C   UNL     1      -2.814   3.514 -27.977  0.00  0.00    +0.000 A 
ATOM     23  C   UNL     1      -1.941   3.543 -27.013  0.00  0.00    +0.002 A 
ATOM     24  C   UNL     1      -2.332   3.434 -25.779  0.00  0.00    +0.028 A 
ATOM     25  C   UNL     1      -3.595   3.297 -25.507  0.00  0.00    +0.065 A 
ATOM     26  C   UNL     1      -4.468   3.268 -26.469  0.00  0.00    +0.028 A 
ATOM     27  C   UNL     1      -4.078   3.376 -27.705  0.00  0.00    +0.002 A 
ENDBRANCH   1  25
TORSDOF 2
ENDMDL
