MODEL 1
REMARK VINA RESULT:    -8.893      0.000      0.000
REMARK INTER + INTRA:         -10.677
REMARK INTER:                 -10.415
REMARK INTRA:                  -0.262
REMARK UNBOUND:                -0.224
REMARK  Name = ZINC000000057588
REMARK  5 active torsions:
REMARK  status: ('A' for Active; 'I' for Inactive)
REMARK    1  A    between atoms: C_1  and  O_2
REMARK    2  A    between atoms: O_2  and  C_3
REMARK    3  A    between atoms: C_6  and  C_7
REMARK    4  A    between atoms: C_12  and  O_13
REMARK    5  A    between atoms: O_13  and  C_14
REMARK                            x       y       z     vdW  Elec       q    Type
REMARK                         _______ _______ _______ _____ _____    ______ ____
ROOT
ATOM      1  C   UNL     1      -0.764   3.944 -23.137  0.00  0.00    +0.064 A 
ATOM      2  C   UNL     1      -0.242   5.130 -23.239  0.00  0.00    +0.208 A 
ATOM      3  O   UNL     1       1.046   5.265 -23.367  0.00  0.00    -0.462 OA
ATOM      4  C   UNL     1       1.809   4.213 -23.391  0.00  0.00    +0.142 A 
ATOM      5  C   UNL     1       3.096   4.348 -23.519  0.00  0.00    +0.092 A 
ATOM      6  C   UNL     1       3.861   3.296 -23.544  0.00  0.00    +0.124 A 
ATOM      7  C   UNL     1       3.338   2.110 -23.441  0.00  0.00    +0.046 A 
ATOM      8  C   UNL     1       2.051   1.976 -23.314  0.00  0.00    +0.019 A 
ATOM      9  C   UNL     1       1.287   3.027 -23.289  0.00  0.00    +0.065 A 
ATOM     10  C   UNL     1       0.001   2.893 -23.162  0.00  0.00    +0.200 A 
ATOM     11  O   UNL     1      -0.522   1.707 -23.059  0.00  0.00    -0.286 OA
ENDROOT
BRANCH   1  15
ATOM     12  C   UNL     1      -4.624   3.537 -22.752  0.00  0.00    +0.120 A 
ATOM     13  C   UNL     1      -4.103   3.716 -23.931  0.00  0.00    +0.046 A 
ATOM     14  C   UNL     1      -2.817   3.852 -24.059  0.00  0.00    +0.012 A 
ATOM     15  C   UNL     1      -2.051   3.809 -23.009  0.00  0.00    -0.011 A 
ATOM     16  C   UNL     1      -2.571   3.630 -21.832  0.00  0.00    +0.012 A 
ATOM     17  C   UNL     1      -3.858   3.495 -21.703  0.00  0.00    +0.046 A 
BRANCH  12  19
ATOM     18  C   UNL     1      -6.395   2.688 -21.652  0.00  0.00    +0.277 C 
ATOM     19  O   UNL     1      -5.910   3.402 -22.624  0.00  0.00    -0.495 OA
ENDBRANCH  12  19
ENDBRANCH   1  15
BRANCH   6  20
ATOM     20  O   UNL     1       5.147   3.431 -23.671  0.00  0.00    -0.495 OA
ATOM     21  C   UNL     1       5.755   4.428 -23.101  0.00  0.00    +0.277 C 
ENDBRANCH   6  20
TORSDOF 3
ENDMDL
MODEL 2
REMARK VINA RESULT:    -8.538      1.174      7.105
REMARK INTER + INTRA:         -10.259
REMARK INTER:                  -9.985
REMARK INTRA:                  -0.273
REMARK UNBOUND:                -0.224
REMARK  Name = ZINC000000057588
REMARK  5 active torsions:
REMARK  status: ('A' for Active; 'I' for Inactive)
REMARK    1  A    between atoms: C_1  and  O_2
REMARK    2  A    between atoms: O_2  and  C_3
REMARK    3  A    between atoms: C_6  and  C_7
REMARK    4  A    between atoms: C_12  and  O_13
REMARK    5  A    between atoms: O_13  and  C_14
REMARK                            x       y       z     vdW  Elec       q    Type
REMARK                         _______ _______ _______ _____ _____    ______ ____
ROOT
ATOM      1  C   UNL     1       0.581   3.437 -23.704  0.00  0.00    +0.064 A 
ATOM      2  C   UNL     1      -0.014   4.029 -24.697  0.00  0.00    +0.208 A 
ATOM      3  O   UNL     1      -1.310   4.128 -24.713  0.00  0.00    -0.462 OA
ATOM      4  C   UNL     1      -2.011   3.637 -23.735  0.00  0.00    +0.142 A 
ATOM      5  C   UNL     1      -3.307   3.737 -23.750  0.00  0.00    +0.092 A 
ATOM      6  C   UNL     1      -4.009   3.246 -22.772  0.00  0.00    +0.124 A 
ATOM      7  C   UNL     1      -3.415   2.655 -21.778  0.00  0.00    +0.046 A 
ATOM      8  C   UNL     1      -2.118   2.555 -21.763  0.00  0.00    +0.019 A 
ATOM      9  C   UNL     1      -1.417   3.046 -22.741  0.00  0.00    +0.065 A 
ATOM     10  C   UNL     1      -0.121   2.946 -22.726  0.00  0.00    +0.200 A 
ATOM     11  O   UNL     1       0.473   2.355 -21.732  0.00  0.00    -0.286 OA
ENDROOT
BRANCH   1  15
ATOM     12  C   UNL     1       4.469   3.134 -23.656  0.00  0.00    +0.120 A 
ATOM     13  C   UNL     1       3.895   4.209 -23.201  0.00  0.00    +0.046 A 
ATOM     14  C   UNL     1       2.599   4.310 -23.217  0.00  0.00    +0.012 A 
ATOM     15  C   UNL     1       1.877   3.337 -23.687  0.00  0.00    -0.011 A 
ATOM     16  C   UNL     1       2.450   2.263 -24.142  0.00  0.00    +0.012 A 
ATOM     17  C   UNL     1       3.747   2.161 -24.126  0.00  0.00    +0.046 A 
BRANCH  12  19
ATOM     18  C   UNL     1       6.393   2.911 -22.508  0.00  0.00    +0.277 C 
ATOM     19  O   UNL     1       5.765   3.033 -23.640  0.00  0.00    -0.495 OA
ENDBRANCH  12  19
ENDBRANCH   1  15
BRANCH   6  20
ATOM     20  O   UNL     1      -5.305   3.346 -22.788  0.00  0.00    -0.495 OA
ATOM     21  C   UNL     1      -6.002   2.914 -21.779  0.00  0.00    +0.277 C 
ENDBRANCH   6  20
TORSDOF 3
ENDMDL
MODEL 3
REMARK VINA RESULT:    -8.394      1.329      1.952
REMARK INTER + INTRA:         -10.090
REMARK INTER:                  -9.807
REMARK INTRA:                  -0.283
REMARK UNBOUND:                -0.224
REMARK  Name = ZINC000000057588
REMARK  5 active torsions:
REMARK  status: ('A' for Active; 'I' for Inactive)
REMARK    1  A    between atoms: C_1  and  O_2
REMARK    2  A    between atoms: O_2  and  C_3
REMARK    3  A    between atoms: C_6  and  C_7
REMARK    4  A    between atoms: C_12  and  O_13
REMARK    5  A    between atoms: O_13  and  C_14
REMARK                            x       y       z     vdW  Elec       q    Type
REMARK                         _______ _______ _______ _____ _____    ______ ____
ROOT
ATOM      1  C   UNL     1       0.544   3.774 -23.621  0.00  0.00    +0.064 A 
ATOM      2  C   UNL     1       1.182   4.902 -23.727  0.00  0.00    +0.208 A 
ATOM      3  O   UNL     1       2.459   4.950 -23.486  0.00  0.00    -0.462 OA
ATOM      4  C   UNL     1       3.097   3.872 -23.139  0.00  0.00    +0.142 A 
ATOM      5  C   UNL     1       4.373   3.921 -22.898  0.00  0.00    +0.092 A 
ATOM      6  C   UNL     1       5.011   2.842 -22.551  0.00  0.00    +0.124 A 
ATOM      7  C   UNL     1       4.373   1.715 -22.445  0.00  0.00    +0.046 A 
ATOM      8  C   UNL     1       3.096   1.666 -22.687  0.00  0.00    +0.019 A 
ATOM      9  C   UNL     1       2.458   2.744 -23.033  0.00  0.00    +0.065 A 
ATOM     10  C   UNL     1       1.182   2.695 -23.274  0.00  0.00    +0.200 A 
ATOM     11  O   UNL     1       0.543   1.568 -23.169  0.00  0.00    -0.286 OA
ENDROOT
BRANCH   1  15
ATOM     12  C   UNL     1      -3.286   3.624 -24.347  0.00  0.00    +0.120 A 
ATOM     13  C   UNL     1      -2.861   3.809 -23.131  0.00  0.00    +0.046 A 
ATOM     14  C   UNL     1      -1.585   3.859 -22.890  0.00  0.00    +0.012 A 
ATOM     15  C   UNL     1      -0.733   3.724 -23.862  0.00  0.00    -0.011 A 
ATOM     16  C   UNL     1      -1.157   3.539 -25.077  0.00  0.00    +0.012 A 
ATOM     17  C   UNL     1      -2.434   3.489 -25.320  0.00  0.00    +0.046 A 
BRANCH  12  19
ATOM     18  C   UNL     1      -5.413   3.824 -23.639  0.00  0.00    +0.277 C 
ATOM     19  O   UNL     1      -4.562   3.574 -24.589  0.00  0.00    -0.495 OA
ENDBRANCH  12  19
ENDBRANCH   1  15
BRANCH   6  20
ATOM     20  O   UNL     1       6.287   2.891 -22.310  0.00  0.00    -0.495 OA
ATOM     21  C   UNL     1       6.752   3.735 -21.437  0.00  0.00    +0.277 C 
ENDBRANCH   6  20
TORSDOF 3
ENDMDL
MODEL 4
REMARK VINA RESULT:    -8.357      0.958      2.110
REMARK INTER + INTRA:         -10.046
REMARK INTER:                  -9.792
REMARK INTRA:                  -0.254
REMARK UNBOUND:                -0.224
REMARK  Name = ZINC000000057588
REMARK  5 active torsions:
REMARK  status: ('A' for Active; 'I' for Inactive)
REMARK    1  A    between atoms: C_1  and  O_2
REMARK    2  A    between atoms: O_2  and  C_3
REMARK    3  A    between atoms: C_6  and  C_7
REMARK    4  A    between atoms: C_12  and  O_13
REMARK    5  A    between atoms: O_13  and  C_14
REMARK                            x       y       z     vdW  Elec       q    Type
REMARK                         _______ _______ _______ _____ _____    ______ ____
ROOT
ATOM      1  C   UNL     1      -0.097   3.012 -23.200  0.00  0.00    +0.064 A 
ATOM      2  C   UNL     1       0.418   1.819 -23.244  0.00  0.00    +0.208 A 
ATOM      3  O   UNL     1       1.710   1.670 -23.264  0.00  0.00    -0.462 OA
ATOM      4  C   UNL     1       2.485   2.713 -23.241  0.00  0.00    +0.142 A 
ATOM      5  C   UNL     1       3.776   2.564 -23.261  0.00  0.00    +0.092 A 
ATOM      6  C   UNL     1       4.552   3.607 -23.237  0.00  0.00    +0.124 A 
ATOM      7  C   UNL     1       4.037   4.800 -23.194  0.00  0.00    +0.046 A 
ATOM      8  C   UNL     1       2.745   4.949 -23.173  0.00  0.00    +0.019 A 
ATOM      9  C   UNL     1       1.970   3.906 -23.197  0.00  0.00    +0.065 A 
ATOM     10  C   UNL     1       0.679   4.055 -23.176  0.00  0.00    +0.200 A 
ATOM     11  O   UNL     1       0.163   5.248 -23.132  0.00  0.00    -0.286 OA
ENDROOT
BRANCH   1  15
ATOM     12  C   UNL     1      -3.971   3.464 -23.141  0.00  0.00    +0.120 A 
ATOM     13  C   UNL     1      -3.333   3.177 -22.044  0.00  0.00    +0.046 A 
ATOM     14  C   UNL     1      -2.042   3.026 -22.064  0.00  0.00    +0.012 A 
ATOM     15  C   UNL     1      -1.389   3.162 -23.179  0.00  0.00    -0.011 A 
ATOM     16  C   UNL     1      -2.026   3.449 -24.275  0.00  0.00    +0.012 A 
ATOM     17  C   UNL     1      -3.317   3.600 -24.256  0.00  0.00    +0.046 A 
BRANCH  12  19
ATOM     18  C   UNL     1      -5.953   3.169 -22.114  0.00  0.00    +0.277 C 
ATOM     19  O   UNL     1      -5.262   3.614 -23.121  0.00  0.00    -0.495 OA
ENDBRANCH  12  19
ENDBRANCH   1  15
BRANCH   6  20
ATOM     20  O   UNL     1       5.843   3.458 -23.258  0.00  0.00    -0.495 OA
ATOM     21  C   UNL     1       6.615   4.493 -23.401  0.00  0.00    +0.277 C 
ENDBRANCH   6  20
TORSDOF 3
ENDMDL
MODEL 5
REMARK VINA RESULT:    -8.235      1.416      7.198
REMARK INTER + INTRA:          -9.903
REMARK INTER:                  -9.861
REMARK INTRA:                  -0.042
REMARK UNBOUND:                -0.224
REMARK  Name = ZINC000000057588
REMARK  5 active torsions:
REMARK  status: ('A' for Active; 'I' for Inactive)
REMARK    1  A    between atoms: C_1  and  O_2
REMARK    2  A    between atoms: O_2  and  C_3
REMARK    3  A    between atoms: C_6  and  C_7
REMARK    4  A    between atoms: C_12  and  O_13
REMARK    5  A    between atoms: O_13  and  C_14
REMARK                            x       y       z     vdW  Elec       q    Type
REMARK                         _______ _______ _______ _____ _____    ______ ____
ROOT
ATOM      1  C   UNL     1       0.500   2.319 -22.448  0.00  0.00    +0.064 A 
ATOM      2  C   UNL     1      -0.181   1.937 -21.408  0.00  0.00    +0.208 A 
ATOM      3  O   UNL     1      -1.470   2.109 -21.377  0.00  0.00    -0.462 OA
ATOM      4  C   UNL     1      -2.077   2.663 -22.385  0.00  0.00    +0.142 A 
ATOM      5  C   UNL     1      -3.364   2.835 -22.353  0.00  0.00    +0.092 A 
ATOM      6  C   UNL     1      -3.972   3.389 -23.361  0.00  0.00    +0.124 A 
ATOM      7  C   UNL     1      -3.290   3.771 -24.400  0.00  0.00    +0.046 A 
ATOM      8  C   UNL     1      -2.002   3.598 -24.431  0.00  0.00    +0.019 A 
ATOM      9  C   UNL     1      -1.395   3.045 -23.424  0.00  0.00    +0.065 A 
ATOM     10  C   UNL     1      -0.108   2.873 -23.456  0.00  0.00    +0.200 A 
ATOM     11  O   UNL     1       0.574   3.254 -24.495  0.00  0.00    -0.286 OA
ENDROOT
BRANCH   1  15
ATOM     12  C   UNL     1       4.364   1.801 -22.545  0.00  0.00    +0.120 A 
ATOM     13  C   UNL     1       3.868   3.003 -22.583  0.00  0.00    +0.046 A 
ATOM     14  C   UNL     1       2.580   3.175 -22.551  0.00  0.00    +0.012 A 
ATOM     15  C   UNL     1       1.788   2.147 -22.480  0.00  0.00    -0.011 A 
ATOM     16  C   UNL     1       2.284   0.946 -22.443  0.00  0.00    +0.012 A 
ATOM     17  C   UNL     1       3.572   0.773 -22.475  0.00  0.00    +0.046 A 
BRANCH  12  19
ATOM     18  C   UNL     1       6.446   2.657 -22.541  0.00  0.00    +0.277 C 
ATOM     19  O   UNL     1       5.652   1.629 -22.578  0.00  0.00    -0.495 OA
ENDBRANCH  12  19
ENDBRANCH   1  15
BRANCH   6  20
ATOM     20  O   UNL     1      -5.260   3.561 -23.329  0.00  0.00    -0.495 OA
ATOM     21  C   UNL     1      -5.928   3.268 -22.253  0.00  0.00    +0.277 C 
ENDBRANCH   6  20
TORSDOF 3
ENDMDL
MODEL 6
REMARK VINA RESULT:    -7.505      1.167      7.352
REMARK INTER + INTRA:          -9.045
REMARK INTER:                  -9.062
REMARK INTRA:                   0.017
REMARK UNBOUND:                -0.224
REMARK  Name = ZINC000000057588
REMARK  5 active torsions:
REMARK  status: ('A' for Active; 'I' for Inactive)
REMARK    1  A    between atoms: C_1  and  O_2
REMARK    2  A    between atoms: O_2  and  C_3
REMARK    3  A    between atoms: C_6  and  C_7
REMARK    4  A    between atoms: C_12  and  O_13
REMARK    5  A    between atoms: O_13  and  C_14
REMARK                            x       y       z     vdW  Elec       q    Type
REMARK                         _______ _______ _______ _____ _____    ______ ____
ROOT
ATOM      1  C   UNL     1       1.645   3.355 -23.052  0.00  0.00    +0.064 A 
ATOM      2  C   UNL     1       1.204   2.442 -22.238  0.00  0.00    +0.208 A 
ATOM      3  O   UNL     1      -0.075   2.232 -22.129  0.00  0.00    -0.462 OA
ATOM      4  C   UNL     1      -0.912   2.935 -22.833  0.00  0.00    +0.142 A 
ATOM      5  C   UNL     1      -2.190   2.725 -22.724  0.00  0.00    +0.092 A 
ATOM      6  C   UNL     1      -3.027   3.427 -23.428  0.00  0.00    +0.124 A 
ATOM      7  C   UNL     1      -2.586   4.340 -24.242  0.00  0.00    +0.046 A 
ATOM      8  C   UNL     1      -1.307   4.550 -24.351  0.00  0.00    +0.019 A 
ATOM      9  C   UNL     1      -0.470   3.848 -23.647  0.00  0.00    +0.065 A 
ATOM     10  C   UNL     1       0.807   4.058 -23.757  0.00  0.00    +0.200 A 
ATOM     11  O   UNL     1       1.249   4.971 -24.570  0.00  0.00    -0.286 OA
ENDROOT
BRANCH   1  15
ATOM     12  C   UNL     1       5.479   3.990 -23.382  0.00  0.00    +0.120 A 
ATOM     13  C   UNL     1       4.988   2.818 -23.659  0.00  0.00    +0.046 A 
ATOM     14  C   UNL     1       3.710   2.606 -23.549  0.00  0.00    +0.012 A 
ATOM     15  C   UNL     1       2.923   3.566 -23.162  0.00  0.00    -0.011 A 
ATOM     16  C   UNL     1       3.414   4.737 -22.886  0.00  0.00    +0.012 A 
ATOM     17  C   UNL     1       4.692   4.950 -22.996  0.00  0.00    +0.046 A 
BRANCH  12  19
ATOM     18  C   UNL     1       7.386   3.831 -24.567  0.00  0.00    +0.277 C 
ATOM     19  O   UNL     1       6.757   4.201 -23.492  0.00  0.00    -0.495 OA
ENDBRANCH  12  19
ENDBRANCH   1  15
BRANCH   6  20
ATOM     20  O   UNL     1      -4.305   3.217 -23.318  0.00  0.00    -0.495 OA
ATOM     21  C   UNL     1      -4.856   3.163 -22.142  0.00  0.00    +0.277 C 
ENDBRANCH   6  20
TORSDOF 3
ENDMDL
MODEL 7
REMARK VINA RESULT:    -7.282      2.148      4.171
REMARK INTER + INTRA:          -8.783
REMARK INTER:                  -8.518
REMARK INTRA:                  -0.264
REMARK UNBOUND:                -0.224
REMARK  Name = ZINC000000057588
REMARK  5 active torsions:
REMARK  status: ('A' for Active; 'I' for Inactive)
REMARK    1  A    between atoms: C_1  and  O_2
REMARK    2  A    between atoms: O_2  and  C_3
REMARK    3  A    between atoms: C_6  and  C_7
REMARK    4  A    between atoms: C_12  and  O_13
REMARK    5  A    between atoms: O_13  and  C_14
REMARK                            x       y       z     vdW  Elec       q    Type
REMARK                         _______ _______ _______ _____ _____    ______ ____
ROOT
ATOM      1  C   UNL     1       2.877   3.416 -23.783  0.00  0.00    +0.064 A 
ATOM      2  C   UNL     1       3.639   2.400 -24.058  0.00  0.00    +0.208 A 
ATOM      3  O   UNL     1       4.919   2.469 -23.839  0.00  0.00    -0.462 OA
ATOM      4  C   UNL     1       5.436   3.555 -23.344  0.00  0.00    +0.142 A 
ATOM      5  C   UNL     1       6.715   3.624 -23.125  0.00  0.00    +0.092 A 
ATOM      6  C   UNL     1       7.233   4.709 -22.630  0.00  0.00    +0.124 A 
ATOM      7  C   UNL     1       6.470   5.725 -22.354  0.00  0.00    +0.046 A 
ATOM      8  C   UNL     1       5.190   5.656 -22.574  0.00  0.00    +0.019 A 
ATOM      9  C   UNL     1       4.674   4.571 -23.069  0.00  0.00    +0.065 A 
ATOM     10  C   UNL     1       3.395   4.502 -23.288  0.00  0.00    +0.200 A 
ATOM     11  O   UNL     1       2.632   5.518 -23.012  0.00  0.00    -0.286 OA
ENDROOT
BRANCH   1  15
ATOM     12  C   UNL     1      -0.962   3.210 -24.438  0.00  0.00    +0.120 A 
ATOM     13  C   UNL     1      -0.182   3.766 -25.317  0.00  0.00    +0.046 A 
ATOM     14  C   UNL     1       1.098   3.835 -25.099  0.00  0.00    +0.012 A 
ATOM     15  C   UNL     1       1.597   3.348 -24.002  0.00  0.00    -0.011 A 
ATOM     16  C   UNL     1       0.817   2.792 -23.123  0.00  0.00    +0.012 A 
ATOM     17  C   UNL     1      -0.463   2.724 -23.340  0.00  0.00    +0.046 A 
BRANCH  12  19
ATOM     18  C   UNL     1      -2.958   4.226 -24.665  0.00  0.00    +0.277 C 
ATOM     19  O   UNL     1      -2.242   3.142 -24.656  0.00  0.00    -0.495 OA
ENDBRANCH  12  19
ENDBRANCH   1  15
BRANCH   6  20
ATOM     20  O   UNL     1       8.512   4.778 -22.411  0.00  0.00    -0.495 OA
ATOM     21  C   UNL     1       8.955   5.300 -21.306  0.00  0.00    +0.277 C 
ENDBRANCH   6  20
TORSDOF 3
ENDMDL
MODEL 8
REMARK VINA RESULT:    -6.560      1.914      7.883
REMARK INTER + INTRA:          -7.934
REMARK INTER:                  -7.822
REMARK INTRA:                  -0.112
REMARK UNBOUND:                -0.224
REMARK  Name = ZINC000000057588
REMARK  5 active torsions:
REMARK  status: ('A' for Active; 'I' for Inactive)
REMARK    1  A    between atoms: C_1  and  O_2
REMARK    2  A    between atoms: O_2  and  C_3
REMARK    3  A    between atoms: C_6  and  C_7
REMARK    4  A    between atoms: C_12  and  O_13
REMARK    5  A    between atoms: O_13  and  C_14
REMARK                            x       y       z     vdW  Elec       q    Type
REMARK                         _______ _______ _______ _____ _____    ______ ____
ROOT
ATOM      1  C   UNL     1       3.597   3.227 -22.668  0.00  0.00    +0.064 A 
ATOM      2  C   UNL     1       3.526   2.207 -21.864  0.00  0.00    +0.208 A 
ATOM      3  O   UNL     1       2.367   1.714 -21.541  0.00  0.00    -0.462 OA
ATOM      4  C   UNL     1       1.280   2.239 -22.022  0.00  0.00    +0.142 A 
ATOM      5  C   UNL     1       0.121   1.746 -21.700  0.00  0.00    +0.092 A 
ATOM      6  C   UNL     1      -0.967   2.271 -22.181  0.00  0.00    +0.124 A 
ATOM      7  C   UNL     1      -0.896   3.291 -22.984  0.00  0.00    +0.046 A 
ATOM      8  C   UNL     1       0.263   3.784 -23.307  0.00  0.00    +0.019 A 
ATOM      9  C   UNL     1       1.350   3.259 -22.826  0.00  0.00    +0.065 A 
ATOM     10  C   UNL     1       2.509   3.752 -23.149  0.00  0.00    +0.200 A 
ATOM     11  O   UNL     1       2.579   4.772 -23.953  0.00  0.00    -0.286 OA
ENDROOT
BRANCH   1  15
ATOM     12  C   UNL     1       7.071   4.708 -23.639  0.00  0.00    +0.120 A 
ATOM     13  C   UNL     1       6.249   5.403 -22.910  0.00  0.00    +0.046 A 
ATOM     14  C   UNL     1       5.091   4.910 -22.586  0.00  0.00    +0.012 A 
ATOM     15  C   UNL     1       4.755   3.721 -22.991  0.00  0.00    -0.011 A 
ATOM     16  C   UNL     1       5.576   3.026 -23.720  0.00  0.00    +0.012 A 
ATOM     17  C   UNL     1       6.735   3.520 -24.045  0.00  0.00    +0.046 A 
BRANCH  12  19
ATOM     18  C   UNL     1       8.486   6.456 -23.739  0.00  0.00    +0.277 C 
ATOM     19  O   UNL     1       8.229   5.202 -23.963  0.00  0.00    -0.495 OA
ENDBRANCH  12  19
ENDBRANCH   1  15
BRANCH   6  20
ATOM     20  O   UNL     1      -2.125   1.778 -21.858  0.00  0.00    -0.495 OA
ATOM     21  C   UNL     1      -3.120   2.572 -21.596  0.00  0.00    +0.277 C 
ENDBRANCH   6  20
TORSDOF 3
ENDMDL
