MODEL 1
REMARK VINA RESULT:    -6.004      0.000      0.000
REMARK INTER + INTRA:          -7.410
REMARK INTER:                  -6.922
REMARK INTRA:                  -0.488
REMARK UNBOUND:                -0.352
REMARK  Name = ZINC000000080786
REMARK  5 active torsions:
REMARK  status: ('A' for Active; 'I' for Inactive)
REMARK    1  A    between atoms: C_1  and  O_2
REMARK    2  A    between atoms: O_2  and  C_3
REMARK    3  A    between atoms: C_3  and  C_5
REMARK    4  A    between atoms: C_8  and  O_9
REMARK    5  A    between atoms: C_11  and  O_12
REMARK                            x       y       z     vdW  Elec       q    Type
REMARK                         _______ _______ _______ _____ _____    ______ ____
ROOT
ATOM      1  C   UNL     1      -1.873   2.610 -22.264  0.00  0.00    +0.100 A 
ATOM      2  C   UNL     1      -2.385   2.946 -21.116  0.00  0.00    +0.022 A 
ATOM      3  C   UNL     1      -3.620   3.343 -21.046  0.00  0.00    +0.046 A 
ATOM      4  C   UNL     1      -4.345   3.406 -22.124  0.00  0.00    +0.120 A 
ATOM      5  C   UNL     1      -3.834   3.070 -23.271  0.00  0.00    +0.091 A 
ATOM      6  C   UNL     1      -2.598   2.672 -23.341  0.00  0.00    +0.134 A 
ENDROOT
BRANCH   1   7
ATOM      7  C   UNL     1      -0.638   2.212 -22.333  0.00  0.00    +0.342 C 
ATOM      8  O   UNL     1      -0.351   0.953 -22.187  0.00  0.00    -0.245 OA
BRANCH   7  10
ATOM      9  C   UNL     1       1.395   2.707 -23.167  0.00  0.00    +0.280 C 
ATOM     10  O   UNL     1       0.311   3.073 -22.549  0.00  0.00    -0.464 OA
ENDBRANCH   7  10
ENDBRANCH   1   7
BRANCH   4  11
ATOM     11  O   UNL     1      -5.580   3.804 -22.054  0.00  0.00    -0.507 OA
ATOM     12  H   UNL     1      -6.237   3.386 -22.576  0.00  0.00    +0.292 HD
ENDBRANCH   4  11
BRANCH   6  13
ATOM     13  O   UNL     1      -2.087   2.336 -24.489  0.00  0.00    -0.506 OA
ATOM     14  H   UNL     1      -1.364   2.819 -24.838  0.00  0.00    +0.292 HD
ENDBRANCH   6  13
TORSDOF 4
ENDMDL
MODEL 2
REMARK VINA RESULT:    -5.904      1.957      2.571
REMARK INTER + INTRA:          -7.292
REMARK INTER:                  -6.841
REMARK INTRA:                  -0.451
REMARK UNBOUND:                -0.352
REMARK  Name = ZINC000000080786
REMARK  5 active torsions:
REMARK  status: ('A' for Active; 'I' for Inactive)
REMARK    1  A    between atoms: C_1  and  O_2
REMARK    2  A    between atoms: O_2  and  C_3
REMARK    3  A    between atoms: C_3  and  C_5
REMARK    4  A    between atoms: C_8  and  O_9
REMARK    5  A    between atoms: C_11  and  O_12
REMARK                            x       y       z     vdW  Elec       q    Type
REMARK                         _______ _______ _______ _____ _____    ______ ____
ROOT
ATOM      1  C   UNL     1      -1.768   3.258 -23.935  0.00  0.00    +0.100 A 
ATOM      2  C   UNL     1      -2.879   3.445 -23.286  0.00  0.00    +0.022 A 
ATOM      3  C   UNL     1      -3.964   3.754 -23.931  0.00  0.00    +0.046 A 
ATOM      4  C   UNL     1      -3.939   3.876 -25.225  0.00  0.00    +0.120 A 
ATOM      5  C   UNL     1      -2.828   3.690 -25.874  0.00  0.00    +0.091 A 
ATOM      6  C   UNL     1      -1.742   3.380 -25.229  0.00  0.00    +0.134 A 
ENDROOT
BRANCH   1   7
ATOM      7  C   UNL     1      -0.683   2.949 -23.290  0.00  0.00    +0.342 C 
ATOM      8  O   UNL     1       0.158   3.879 -22.949  0.00  0.00    -0.245 OA
BRANCH   7  10
ATOM      9  C   UNL     1      -0.132   1.387 -21.763  0.00  0.00    +0.280 C 
ATOM     10  O   UNL     1      -0.438   1.709 -22.985  0.00  0.00    -0.464 OA
ENDBRANCH   7  10
ENDBRANCH   1   7
BRANCH   4  11
ATOM     11  O   UNL     1      -5.024   4.185 -25.870  0.00  0.00    -0.507 OA
ATOM     12  H   UNL     1      -5.557   3.510 -26.240  0.00  0.00    +0.292 HD
ENDBRANCH   4  11
BRANCH   6  13
ATOM     13  O   UNL     1      -0.632   3.194 -25.878  0.00  0.00    -0.506 OA
ATOM     14  H   UNL     1      -0.525   2.433 -26.415  0.00  0.00    +0.292 HD
ENDBRANCH   6  13
TORSDOF 4
ENDMDL
MODEL 3
REMARK VINA RESULT:    -5.812      2.449      3.794
REMARK INTER + INTRA:          -7.183
REMARK INTER:                  -6.734
REMARK INTRA:                  -0.449
REMARK UNBOUND:                -0.352
REMARK  Name = ZINC000000080786
REMARK  5 active torsions:
REMARK  status: ('A' for Active; 'I' for Inactive)
REMARK    1  A    between atoms: C_1  and  O_2
REMARK    2  A    between atoms: O_2  and  C_3
REMARK    3  A    between atoms: C_3  and  C_5
REMARK    4  A    between atoms: C_8  and  O_9
REMARK    5  A    between atoms: C_11  and  O_12
REMARK                            x       y       z     vdW  Elec       q    Type
REMARK                         _______ _______ _______ _____ _____    ______ ____
ROOT
ATOM      1  C   UNL     1      -3.911   3.855 -23.592  0.00  0.00    +0.100 A 
ATOM      2  C   UNL     1      -4.878   3.500 -22.798  0.00  0.00    +0.022 A 
ATOM      3  C   UNL     1      -4.652   3.343 -21.528  0.00  0.00    +0.046 A 
ATOM      4  C   UNL     1      -3.458   3.540 -21.051  0.00  0.00    +0.120 A 
ATOM      5  C   UNL     1      -2.492   3.895 -21.844  0.00  0.00    +0.091 A 
ATOM      6  C   UNL     1      -2.718   4.052 -23.115  0.00  0.00    +0.134 A 
ENDROOT
BRANCH   1   7
ATOM      7  C   UNL     1      -4.138   4.012 -24.862  0.00  0.00    +0.342 C 
ATOM      8  O   UNL     1      -4.683   5.109 -25.294  0.00  0.00    -0.245 OA
BRANCH   7  10
ATOM      9  C   UNL     1      -3.299   3.376 -26.853  0.00  0.00    +0.280 C 
ATOM     10  O   UNL     1      -3.818   3.072 -25.701  0.00  0.00    -0.464 OA
ENDBRANCH   7  10
ENDBRANCH   1   7
BRANCH   4  11
ATOM     11  O   UNL     1      -3.232   3.383 -19.781  0.00  0.00    -0.507 OA
ATOM     12  H   UNL     1      -3.030   4.125 -19.246  0.00  0.00    +0.292 HD
ENDBRANCH   4  11
BRANCH   6  13
ATOM     13  O   UNL     1      -1.751   4.406 -23.908  0.00  0.00    -0.506 OA
ATOM     14  H   UNL     1      -1.681   4.024 -24.761  0.00  0.00    +0.292 HD
ENDBRANCH   6  13
TORSDOF 4
ENDMDL
MODEL 4
REMARK VINA RESULT:    -5.581      2.174      3.768
REMARK INTER + INTRA:          -6.912
REMARK INTER:                  -6.493
REMARK INTRA:                  -0.419
REMARK UNBOUND:                -0.352
REMARK  Name = ZINC000000080786
REMARK  5 active torsions:
REMARK  status: ('A' for Active; 'I' for Inactive)
REMARK    1  A    between atoms: C_1  and  O_2
REMARK    2  A    between atoms: O_2  and  C_3
REMARK    3  A    between atoms: C_3  and  C_5
REMARK    4  A    between atoms: C_8  and  O_9
REMARK    5  A    between atoms: C_11  and  O_12
REMARK                            x       y       z     vdW  Elec       q    Type
REMARK                         _______ _______ _______ _____ _____    ______ ____
ROOT
ATOM      1  C   UNL     1      -3.116   3.370 -23.547  0.00  0.00    +0.100 A 
ATOM      2  C   UNL     1      -4.192   3.931 -24.015  0.00  0.00    +0.022 A 
ATOM      3  C   UNL     1      -4.368   4.028 -25.299  0.00  0.00    +0.046 A 
ATOM      4  C   UNL     1      -3.468   3.566 -26.115  0.00  0.00    +0.120 A 
ATOM      5  C   UNL     1      -2.392   3.006 -25.648  0.00  0.00    +0.091 A 
ATOM      6  C   UNL     1      -2.216   2.908 -24.363  0.00  0.00    +0.134 A 
ENDROOT
BRANCH   1   7
ATOM      7  C   UNL     1      -2.939   3.273 -22.263  0.00  0.00    +0.342 C 
ATOM      8  O   UNL     1      -2.346   4.229 -21.613  0.00  0.00    -0.245 OA
BRANCH   7  10
ATOM      9  C   UNL     1      -4.393   2.297 -20.845  0.00  0.00    +0.280 C 
ATOM     10  O   UNL     1      -3.357   2.218 -21.628  0.00  0.00    -0.464 OA
ENDBRANCH   7  10
ENDBRANCH   1   7
BRANCH   4  11
ATOM     11  O   UNL     1      -3.644   3.664 -27.399  0.00  0.00    -0.507 OA
ATOM     12  H   UNL     1      -3.816   2.896 -27.908  0.00  0.00    +0.292 HD
ENDBRANCH   4  11
BRANCH   6  13
ATOM     13  O   UNL     1      -1.140   2.348 -23.896  0.00  0.00    -0.506 OA
ATOM     14  H   UNL     1      -1.206   1.676 -23.246  0.00  0.00    +0.292 HD
ENDBRANCH   6  13
TORSDOF 4
ENDMDL
MODEL 5
REMARK VINA RESULT:    -5.534      2.214      3.064
REMARK INTER + INTRA:          -6.857
REMARK INTER:                  -6.489
REMARK INTRA:                  -0.368
REMARK UNBOUND:                -0.352
REMARK  Name = ZINC000000080786
REMARK  5 active torsions:
REMARK  status: ('A' for Active; 'I' for Inactive)
REMARK    1  A    between atoms: C_1  and  O_2
REMARK    2  A    between atoms: O_2  and  C_3
REMARK    3  A    between atoms: C_3  and  C_5
REMARK    4  A    between atoms: C_8  and  O_9
REMARK    5  A    between atoms: C_11  and  O_12
REMARK                            x       y       z     vdW  Elec       q    Type
REMARK                         _______ _______ _______ _____ _____    ______ ____
ROOT
ATOM      1  C   UNL     1      -0.113   3.953 -23.635  0.00  0.00    +0.100 A 
ATOM      2  C   UNL     1      -1.005   4.667 -23.014  0.00  0.00    +0.022 A 
ATOM      3  C   UNL     1      -1.905   4.085 -22.279  0.00  0.00    +0.046 A 
ATOM      4  C   UNL     1      -1.914   2.790 -22.164  0.00  0.00    +0.120 A 
ATOM      5  C   UNL     1      -1.023   2.077 -22.785  0.00  0.00    +0.091 A 
ATOM      6  C   UNL     1      -0.122   2.658 -23.521  0.00  0.00    +0.134 A 
ENDROOT
BRANCH   1   7
ATOM      7  C   UNL     1       0.788   4.534 -24.370  0.00  0.00    +0.342 C 
ATOM      8  O   UNL     1       0.922   4.201 -25.619  0.00  0.00    -0.245 OA
BRANCH   7  10
ATOM      9  C   UNL     1       2.651   5.113 -23.245  0.00  0.00    +0.280 C 
ATOM     10  O   UNL     1       1.554   5.450 -23.857  0.00  0.00    -0.464 OA
ENDBRANCH   7  10
ENDBRANCH   1   7
BRANCH   4  11
ATOM     11  O   UNL     1      -2.815   2.209 -21.429  0.00  0.00    -0.507 OA
ATOM     12  H   UNL     1      -2.614   1.968 -20.546  0.00  0.00    +0.292 HD
ENDBRANCH   4  11
BRANCH   6  13
ATOM     13  O   UNL     1       0.770   1.944 -24.142  0.00  0.00    -0.506 OA
ATOM     14  H   UNL     1       1.235   2.306 -24.871  0.00  0.00    +0.292 HD
ENDBRANCH   6  13
TORSDOF 4
ENDMDL
MODEL 6
REMARK VINA RESULT:    -5.530      1.899      3.964
REMARK INTER + INTRA:          -6.853
REMARK INTER:                  -6.403
REMARK INTRA:                  -0.449
REMARK UNBOUND:                -0.352
REMARK  Name = ZINC000000080786
REMARK  5 active torsions:
REMARK  status: ('A' for Active; 'I' for Inactive)
REMARK    1  A    between atoms: C_1  and  O_2
REMARK    2  A    between atoms: O_2  and  C_3
REMARK    3  A    between atoms: C_3  and  C_5
REMARK    4  A    between atoms: C_8  and  O_9
REMARK    5  A    between atoms: C_11  and  O_12
REMARK                            x       y       z     vdW  Elec       q    Type
REMARK                         _______ _______ _______ _____ _____    ______ ____
ROOT
ATOM      1  C   UNL     1      -1.689   2.907 -23.447  0.00  0.00    +0.100 A 
ATOM      2  C   UNL     1      -2.190   2.701 -22.264  0.00  0.00    +0.022 A 
ATOM      3  C   UNL     1      -1.452   2.183 -21.328  0.00  0.00    +0.046 A 
ATOM      4  C   UNL     1      -0.214   1.871 -21.573  0.00  0.00    +0.120 A 
ATOM      5  C   UNL     1       0.286   2.078 -22.754  0.00  0.00    +0.091 A 
ATOM      6  C   UNL     1      -0.451   2.596 -23.692  0.00  0.00    +0.134 A 
ENDROOT
BRANCH   1   7
ATOM      7  C   UNL     1      -2.426   3.425 -24.383  0.00  0.00    +0.342 C 
ATOM      8  O   UNL     1      -2.605   4.711 -24.434  0.00  0.00    -0.245 OA
BRANCH   7  10
ATOM      9  C   UNL     1      -3.616   3.179 -26.280  0.00  0.00    +0.280 C 
ATOM     10  O   UNL     1      -2.985   2.656 -25.271  0.00  0.00    -0.464 OA
ENDBRANCH   7  10
ENDBRANCH   1   7
BRANCH   4  11
ATOM     11  O   UNL     1       0.523   1.354 -20.636  0.00  0.00    -0.507 OA
ATOM     12  H   UNL     1       0.198   0.639 -20.125  0.00  0.00    +0.292 HD
ENDBRANCH   4  11
BRANCH   6  13
ATOM     13  O   UNL     1       0.050   2.802 -24.873  0.00  0.00    -0.506 OA
ATOM     14  H   UNL     1      -0.234   3.537 -25.380  0.00  0.00    +0.292 HD
ENDBRANCH   6  13
TORSDOF 4
ENDMDL
MODEL 7
REMARK VINA RESULT:    -5.484      1.651      4.328
REMARK INTER + INTRA:          -6.799
REMARK INTER:                  -6.337
REMARK INTRA:                  -0.462
REMARK UNBOUND:                -0.352
REMARK  Name = ZINC000000080786
REMARK  5 active torsions:
REMARK  status: ('A' for Active; 'I' for Inactive)
REMARK    1  A    between atoms: C_1  and  O_2
REMARK    2  A    between atoms: O_2  and  C_3
REMARK    3  A    between atoms: C_3  and  C_5
REMARK    4  A    between atoms: C_8  and  O_9
REMARK    5  A    between atoms: C_11  and  O_12
REMARK                            x       y       z     vdW  Elec       q    Type
REMARK                         _______ _______ _______ _____ _____    ______ ____
ROOT
ATOM      1  C   UNL     1      -1.781   2.993 -21.899  0.00  0.00    +0.100 A 
ATOM      2  C   UNL     1      -1.300   1.885 -21.416  0.00  0.00    +0.022 A 
ATOM      3  C   UNL     1      -0.088   1.520 -21.710  0.00  0.00    +0.046 A 
ATOM      4  C   UNL     1       0.644   2.262 -22.487  0.00  0.00    +0.120 A 
ATOM      5  C   UNL     1       0.164   3.369 -22.970  0.00  0.00    +0.091 A 
ATOM      6  C   UNL     1      -1.049   3.734 -22.676  0.00  0.00    +0.134 A 
ENDROOT
BRANCH   1   7
ATOM      7  C   UNL     1      -2.993   3.357 -21.605  0.00  0.00    +0.342 C 
ATOM      8  O   UNL     1      -3.217   4.081 -20.549  0.00  0.00    -0.245 OA
BRANCH   7  10
ATOM      9  C   UNL     1      -5.195   3.372 -22.080  0.00  0.00    +0.280 C 
ATOM     10  O   UNL     1      -3.983   2.998 -22.368  0.00  0.00    -0.464 OA
ENDBRANCH   7  10
ENDBRANCH   1   7
BRANCH   4  11
ATOM     11  O   UNL     1       1.857   1.898 -22.781  0.00  0.00    -0.507 OA
ATOM     12  H   UNL     1       2.550   2.528 -22.774  0.00  0.00    +0.292 HD
ENDBRANCH   4  11
BRANCH   6  13
ATOM     13  O   UNL     1      -1.530   4.841 -23.160  0.00  0.00    -0.506 OA
ATOM     14  H   UNL     1      -2.325   5.198 -22.813  0.00  0.00    +0.292 HD
ENDBRANCH   6  13
TORSDOF 4
ENDMDL
MODEL 8
REMARK VINA RESULT:    -5.473      1.709      4.225
REMARK INTER + INTRA:          -6.785
REMARK INTER:                  -6.433
REMARK INTRA:                  -0.352
REMARK UNBOUND:                -0.352
REMARK  Name = ZINC000000080786
REMARK  5 active torsions:
REMARK  status: ('A' for Active; 'I' for Inactive)
REMARK    1  A    between atoms: C_1  and  O_2
REMARK    2  A    between atoms: O_2  and  C_3
REMARK    3  A    between atoms: C_3  and  C_5
REMARK    4  A    between atoms: C_8  and  O_9
REMARK    5  A    between atoms: C_11  and  O_12
REMARK                            x       y       z     vdW  Elec       q    Type
REMARK                         _______ _______ _______ _____ _____    ______ ____
ROOT
ATOM      1  C   UNL     1      -2.466   3.295 -22.591  0.00  0.00    +0.100 A 
ATOM      2  C   UNL     1      -2.606   4.041 -23.647  0.00  0.00    +0.022 A 
ATOM      3  C   UNL     1      -1.753   3.953 -24.623  0.00  0.00    +0.046 A 
ATOM      4  C   UNL     1      -0.758   3.120 -24.543  0.00  0.00    +0.120 A 
ATOM      5  C   UNL     1      -0.617   2.374 -23.488  0.00  0.00    +0.091 A 
ATOM      6  C   UNL     1      -1.472   2.462 -22.511  0.00  0.00    +0.134 A 
ENDROOT
BRANCH   1   7
ATOM      7  C   UNL     1      -3.320   3.383 -21.615  0.00  0.00    +0.342 C 
ATOM      8  O   UNL     1      -3.087   4.181 -20.616  0.00  0.00    -0.245 OA
BRANCH   7  10
ATOM      9  C   UNL     1      -5.531   3.213 -22.008  0.00  0.00    +0.280 C 
ATOM     10  O   UNL     1      -4.409   2.672 -21.638  0.00  0.00    -0.464 OA
ENDBRANCH   7  10
ENDBRANCH   1   7
BRANCH   4  11
ATOM     11  O   UNL     1       0.096   3.032 -25.519  0.00  0.00    -0.507 OA
ATOM     12  H   UNL     1       0.875   3.553 -25.508  0.00  0.00    +0.292 HD
ENDBRANCH   4  11
BRANCH   6  13
ATOM     13  O   UNL     1      -1.331   1.716 -21.456  0.00  0.00    -0.506 OA
ATOM     14  H   UNL     1      -0.801   2.010 -20.742  0.00  0.00    +0.292 HD
ENDBRANCH   6  13
TORSDOF 4
ENDMDL
MODEL 9
REMARK VINA RESULT:    -5.429      1.511      2.327
REMARK INTER + INTRA:          -6.734
REMARK INTER:                  -6.239
REMARK INTRA:                  -0.495
REMARK UNBOUND:                -0.352
REMARK  Name = ZINC000000080786
REMARK  5 active torsions:
REMARK  status: ('A' for Active; 'I' for Inactive)
REMARK    1  A    between atoms: C_1  and  O_2
REMARK    2  A    between atoms: O_2  and  C_3
REMARK    3  A    between atoms: C_3  and  C_5
REMARK    4  A    between atoms: C_8  and  O_9
REMARK    5  A    between atoms: C_11  and  O_12
REMARK                            x       y       z     vdW  Elec       q    Type
REMARK                         _______ _______ _______ _____ _____    ______ ____
ROOT
ATOM      1  C   UNL     1      -2.058   3.756 -23.376  0.00  0.00    +0.100 A 
ATOM      2  C   UNL     1      -2.753   4.144 -24.405  0.00  0.00    +0.022 A 
ATOM      3  C   UNL     1      -4.051   4.131 -24.355  0.00  0.00    +0.046 A 
ATOM      4  C   UNL     1      -4.656   3.730 -23.276  0.00  0.00    +0.120 A 
ATOM      5  C   UNL     1      -3.962   3.342 -22.248  0.00  0.00    +0.091 A 
ATOM      6  C   UNL     1      -2.663   3.355 -22.298  0.00  0.00    +0.134 A 
ENDROOT
BRANCH   1   7
ATOM      7  C   UNL     1      -0.759   3.769 -23.427  0.00  0.00    +0.342 C 
ATOM      8  O   UNL     1      -0.105   4.826 -23.050  0.00  0.00    -0.245 OA
BRANCH   7  10
ATOM      9  C   UNL     1       0.978   2.345 -23.260  0.00  0.00    +0.280 C 
ATOM     10  O   UNL     1      -0.115   2.724 -23.854  0.00  0.00    -0.464 OA
ENDBRANCH   7  10
ENDBRANCH   1   7
BRANCH   4  11
ATOM     11  O   UNL     1      -5.955   3.717 -23.226  0.00  0.00    -0.507 OA
ATOM     12  H   UNL     1      -6.404   4.241 -22.593  0.00  0.00    +0.292 HD
ENDBRANCH   4  11
BRANCH   6  13
ATOM     13  O   UNL     1      -1.969   2.967 -21.269  0.00  0.00    -0.506 OA
ATOM     14  H   UNL     1      -1.663   2.082 -21.218  0.00  0.00    +0.292 HD
ENDBRANCH   6  13
TORSDOF 4
ENDMDL
