MODEL 1
REMARK VINA RESULT:   -10.048      0.000      0.000
REMARK INTER + INTRA:          -9.048
REMARK INTER:                 -10.875
REMARK INTRA:                   1.828
REMARK UNBOUND:                 1.882
REMARK  Name = C[C@@H]1CC[C@H](O)[C@]2(CO)CC[C@@H]3[C@H]([C@H]12)C3(C)C             ZINC000225364289
REMARK  6 active torsions:
REMARK  status: ('A' for Active; 'I' for Inactive)
REMARK    1  A    between atoms: C_1  and  C_2
REMARK    2  A    between atoms: C_5  and  O_6
REMARK    3  A    between atoms: C_7  and  C_8
REMARK    4  A    between atoms: C_8  and  O_9
REMARK    5  A    between atoms: C_15  and  C_16
REMARK    6  A    between atoms: C_15  and  C_17
REMARK                            x       y       z     vdW  Elec       q    Type
REMARK                         _______ _______ _______ _____ _____    ______ ____
ROOT
ATOM      1  C   UNL     1      -3.707   2.501 -21.005  0.00  0.00    +0.008 C 
ATOM      2  C   UNL     1      -3.986   3.003 -22.172  0.00  0.00    -0.010 C 
ATOM      3  C   UNL     1      -5.201   3.375 -22.446  0.00  0.00    +0.006 C 
ATOM      4  C   UNL     1      -5.479   3.877 -23.613  0.00  0.00    +0.032 C 
ATOM      5  C   UNL     1      -4.542   4.007 -24.505  0.00  0.00    +0.123 C 
ATOM      6  C   UNL     1      -3.327   3.635 -24.231  0.00  0.00    +0.023 C 
ATOM      7  C   UNL     1      -2.390   3.766 -25.123  0.00  0.00    +0.012 C 
ATOM      8  C   UNL     1      -1.175   3.394 -24.848  0.00  0.00    +0.005 C 
ATOM      9  C   UNL     1      -0.897   2.892 -23.682  0.00  0.00    -0.001 C 
ATOM     10  C   UNL     1      -1.834   2.762 -22.790  0.00  0.00    +0.003 C 
ATOM     11  C   UNL     1      -0.619   2.390 -22.515  0.00  0.00    -0.028 C 
ATOM     12  C   UNL     1       0.654   2.166 -22.664  0.00  0.00    +0.011 C 
ATOM     13  C   UNL     1      -0.782   1.966 -21.297  0.00  0.00    +0.011 C 
ATOM     14  C   UNL     1      -3.049   3.133 -23.064  0.00  0.00    +0.007 C 
ENDROOT
BRANCH   5  15
ATOM     15  O   UNL     1      -4.821   4.509 -25.672  0.00  0.00    -0.391 OA
ATOM     16  H   UNL     1      -4.166   4.203 -26.318  0.00  0.00    +0.210 HD
ENDBRANCH   5  15
BRANCH   6  17
ATOM     17  C   UNL     1      -3.606   4.137 -25.397  0.00  0.00    +0.165 C 
BRANCH  17  18
ATOM     18  O   UNL     1      -4.077   5.345 -25.489  0.00  0.00    -0.394 OA
ATOM     19  H   UNL     1      -4.185   5.719 -24.600  0.00  0.00    +0.209 HD
ENDBRANCH  17  18
ENDBRANCH   6  17
TORSDOF 3
ENDMDL
MODEL 2
REMARK VINA RESULT:    -9.324      1.334      2.800
REMARK INTER + INTRA:          -8.259
REMARK INTER:                 -10.541
REMARK INTRA:                   2.281
REMARK UNBOUND:                 1.882
REMARK  Name = C[C@@H]1CC[C@H](O)[C@]2(CO)CC[C@@H]3[C@H]([C@H]12)C3(C)C             ZINC000225364289
REMARK  6 active torsions:
REMARK  status: ('A' for Active; 'I' for Inactive)
REMARK    1  A    between atoms: C_1  and  C_2
REMARK    2  A    between atoms: C_5  and  O_6
REMARK    3  A    between atoms: C_7  and  C_8
REMARK    4  A    between atoms: C_8  and  O_9
REMARK    5  A    between atoms: C_15  and  C_16
REMARK    6  A    between atoms: C_15  and  C_17
REMARK                            x       y       z     vdW  Elec       q    Type
REMARK                         _______ _______ _______ _____ _____    ______ ____
ROOT
ATOM      1  C   UNL     1      -1.525   3.438 -25.412  0.00  0.00    +0.008 C 
ATOM      2  C   UNL     1      -2.633   3.537 -24.740  0.00  0.00    -0.010 C 
ATOM      3  C   UNL     1      -3.700   4.011 -25.312  0.00  0.00    +0.006 C 
ATOM      4  C   UNL     1      -4.809   4.110 -24.640  0.00  0.00    +0.032 C 
ATOM      5  C   UNL     1      -4.850   3.734 -23.396  0.00  0.00    +0.123 C 
ATOM      6  C   UNL     1      -3.784   3.259 -22.824  0.00  0.00    +0.023 C 
ATOM      7  C   UNL     1      -3.825   2.883 -21.580  0.00  0.00    +0.012 C 
ATOM      8  C   UNL     1      -2.759   2.408 -21.009  0.00  0.00    +0.005 C 
ATOM      9  C   UNL     1      -1.650   2.310 -21.681  0.00  0.00    -0.001 C 
ATOM     10  C   UNL     1      -1.608   2.686 -22.925  0.00  0.00    +0.003 C 
ATOM     11  C   UNL     1      -0.542   2.211 -22.353  0.00  0.00    -0.028 C 
ATOM     12  C   UNL     1       0.234   1.710 -21.437  0.00  0.00    +0.011 C 
ATOM     13  C   UNL     1       0.298   2.286 -23.343  0.00  0.00    +0.011 C 
ATOM     14  C   UNL     1      -2.675   3.161 -23.496  0.00  0.00    +0.007 C 
ENDROOT
BRANCH   5  15
ATOM     15  O   UNL     1      -5.959   3.832 -22.724  0.00  0.00    -0.391 OA
ATOM     16  H   UNL     1      -6.696   3.516 -23.269  0.00  0.00    +0.210 HD
ENDBRANCH   5  15
BRANCH   6  17
ATOM     17  C   UNL     1      -4.892   3.358 -22.152  0.00  0.00    +0.165 C 
BRANCH  17  18
ATOM     18  O   UNL     1      -5.988   3.715 -22.754  0.00  0.00    -0.394 OA
ATOM     19  H   UNL     1      -6.078   3.219 -23.583  0.00  0.00    +0.209 HD
ENDBRANCH  17  18
ENDBRANCH   6  17
TORSDOF 3
ENDMDL
MODEL 3
REMARK VINA RESULT:    -9.311      1.033      3.078
REMARK INTER + INTRA:          -8.246
REMARK INTER:                 -10.081
REMARK INTRA:                   1.835
REMARK UNBOUND:                 1.882
REMARK  Name = C[C@@H]1CC[C@H](O)[C@]2(CO)CC[C@@H]3[C@H]([C@H]12)C3(C)C             ZINC000225364289
REMARK  6 active torsions:
REMARK  status: ('A' for Active; 'I' for Inactive)
REMARK    1  A    between atoms: C_1  and  C_2
REMARK    2  A    between atoms: C_5  and  O_6
REMARK    3  A    between atoms: C_7  and  C_8
REMARK    4  A    between atoms: C_8  and  O_9
REMARK    5  A    between atoms: C_15  and  C_16
REMARK    6  A    between atoms: C_15  and  C_17
REMARK                            x       y       z     vdW  Elec       q    Type
REMARK                         _______ _______ _______ _____ _____    ______ ____
ROOT
ATOM      1  C   UNL     1      -0.604   3.067 -23.488  0.00  0.00    +0.008 C 
ATOM      2  C   UNL     1      -1.647   3.287 -24.233  0.00  0.00    -0.010 C 
ATOM      3  C   UNL     1      -1.517   3.383 -25.522  0.00  0.00    +0.006 C 
ATOM      4  C   UNL     1      -2.559   3.604 -26.267  0.00  0.00    +0.032 C 
ATOM      5  C   UNL     1      -3.733   3.728 -25.721  0.00  0.00    +0.123 C 
ATOM      6  C   UNL     1      -3.864   3.632 -24.432  0.00  0.00    +0.023 C 
ATOM      7  C   UNL     1      -5.038   3.756 -23.886  0.00  0.00    +0.012 C 
ATOM      8  C   UNL     1      -5.168   3.660 -22.596  0.00  0.00    +0.005 C 
ATOM      9  C   UNL     1      -4.126   3.439 -21.852  0.00  0.00    -0.001 C 
ATOM     10  C   UNL     1      -2.952   3.315 -22.397  0.00  0.00    +0.003 C 
ATOM     11  C   UNL     1      -3.083   3.218 -21.108  0.00  0.00    -0.028 C 
ATOM     12  C   UNL     1      -3.644   3.196 -19.934  0.00  0.00    +0.011 C 
ATOM     13  C   UNL     1      -1.846   3.006 -20.770  0.00  0.00    +0.011 C 
ATOM     14  C   UNL     1      -2.821   3.411 -23.687  0.00  0.00    +0.007 C 
ENDROOT
BRANCH   5  15
ATOM     15  O   UNL     1      -4.776   3.949 -26.466  0.00  0.00    -0.391 OA
ATOM     16  H   UNL     1      -5.573   3.649 -26.001  0.00  0.00    +0.210 HD
ENDBRANCH   5  15
BRANCH   6  17
ATOM     17  C   UNL     1      -4.907   3.852 -25.176  0.00  0.00    +0.165 C 
BRANCH  17  18
ATOM     18  O   UNL     1      -5.195   3.039 -26.148  0.00  0.00    -0.394 OA
ATOM     19  H   UNL     1      -4.615   2.262 -26.103  0.00  0.00    +0.209 HD
ENDBRANCH  17  18
ENDBRANCH   6  17
TORSDOF 3
ENDMDL
MODEL 4
REMARK VINA RESULT:    -9.267      1.850      3.370
REMARK INTER + INTRA:          -8.198
REMARK INTER:                 -10.371
REMARK INTRA:                   2.173
REMARK UNBOUND:                 1.882
REMARK  Name = C[C@@H]1CC[C@H](O)[C@]2(CO)CC[C@@H]3[C@H]([C@H]12)C3(C)C             ZINC000225364289
REMARK  6 active torsions:
REMARK  status: ('A' for Active; 'I' for Inactive)
REMARK    1  A    between atoms: C_1  and  C_2
REMARK    2  A    between atoms: C_5  and  O_6
REMARK    3  A    between atoms: C_7  and  C_8
REMARK    4  A    between atoms: C_8  and  O_9
REMARK    5  A    between atoms: C_15  and  C_16
REMARK    6  A    between atoms: C_15  and  C_17
REMARK                            x       y       z     vdW  Elec       q    Type
REMARK                         _______ _______ _______ _____ _____    ______ ____
ROOT
ATOM      1  C   UNL     1      -5.135   3.778 -24.220  0.00  0.00    +0.008 C 
ATOM      2  C   UNL     1      -3.916   3.680 -24.661  0.00  0.00    -0.010 C 
ATOM      3  C   UNL     1      -3.684   3.698 -25.940  0.00  0.00    +0.006 C 
ATOM      4  C   UNL     1      -2.464   3.600 -26.381  0.00  0.00    +0.032 C 
ATOM      5  C   UNL     1      -1.477   3.484 -25.543  0.00  0.00    +0.123 C 
ATOM      6  C   UNL     1      -1.710   3.465 -24.264  0.00  0.00    +0.023 C 
ATOM      7  C   UNL     1      -0.723   3.349 -23.426  0.00  0.00    +0.012 C 
ATOM      8  C   UNL     1      -0.955   3.330 -22.147  0.00  0.00    +0.005 C 
ATOM      9  C   UNL     1      -2.174   3.428 -21.706  0.00  0.00    -0.001 C 
ATOM     10  C   UNL     1      -3.161   3.545 -22.544  0.00  0.00    +0.003 C 
ATOM     11  C   UNL     1      -3.393   3.526 -21.265  0.00  0.00    -0.028 C 
ATOM     12  C   UNL     1      -3.175   3.466 -19.984  0.00  0.00    +0.011 C 
ATOM     13  C   UNL     1      -4.688   3.645 -21.269  0.00  0.00    +0.011 C 
ATOM     14  C   UNL     1      -2.929   3.563 -23.823  0.00  0.00    +0.007 C 
ENDROOT
BRANCH   5  15
ATOM     15  O   UNL     1      -0.258   3.386 -25.984  0.00  0.00    -0.391 OA
ATOM     16  H   UNL     1       0.295   4.054 -25.552  0.00  0.00    +0.210 HD
ENDBRANCH   5  15
BRANCH   6  17
ATOM     17  C   UNL     1      -0.490   3.367 -24.705  0.00  0.00    +0.165 C 
BRANCH  17  18
ATOM     18  O   UNL     1      -0.270   2.980 -25.926  0.00  0.00    -0.394 OA
ATOM     19  H   UNL     1      -0.488   3.700 -26.538  0.00  0.00    +0.209 HD
ENDBRANCH  17  18
ENDBRANCH   6  17
TORSDOF 3
ENDMDL
MODEL 5
REMARK VINA RESULT:    -9.164      2.356      4.704
REMARK INTER + INTRA:          -8.086
REMARK INTER:                  -9.926
REMARK INTRA:                   1.840
REMARK UNBOUND:                 1.882
REMARK  Name = C[C@@H]1CC[C@H](O)[C@]2(CO)CC[C@@H]3[C@H]([C@H]12)C3(C)C             ZINC000225364289
REMARK  6 active torsions:
REMARK  status: ('A' for Active; 'I' for Inactive)
REMARK    1  A    between atoms: C_1  and  C_2
REMARK    2  A    between atoms: C_5  and  O_6
REMARK    3  A    between atoms: C_7  and  C_8
REMARK    4  A    between atoms: C_8  and  O_9
REMARK    5  A    between atoms: C_15  and  C_16
REMARK    6  A    between atoms: C_15  and  C_17
REMARK                            x       y       z     vdW  Elec       q    Type
REMARK                         _______ _______ _______ _____ _____    ______ ____
ROOT
ATOM      1  C   UNL     1      -3.213   4.167 -25.377  0.00  0.00    +0.008 C 
ATOM      2  C   UNL     1      -2.269   3.651 -24.647  0.00  0.00    -0.010 C 
ATOM      3  C   UNL     1      -1.050   3.609 -25.096  0.00  0.00    +0.006 C 
ATOM      4  C   UNL     1      -0.106   3.092 -24.366  0.00  0.00    +0.032 C 
ATOM      5  C   UNL     1      -0.381   2.617 -23.188  0.00  0.00    +0.123 C 
ATOM      6  C   UNL     1      -1.601   2.659 -22.739  0.00  0.00    +0.023 C 
ATOM      7  C   UNL     1      -1.876   2.183 -21.561  0.00  0.00    +0.012 C 
ATOM      8  C   UNL     1      -3.095   2.225 -21.112  0.00  0.00    +0.005 C 
ATOM      9  C   UNL     1      -4.039   2.742 -21.841  0.00  0.00    -0.001 C 
ATOM     10  C   UNL     1      -3.764   3.217 -23.020  0.00  0.00    +0.003 C 
ATOM     11  C   UNL     1      -4.983   3.258 -22.571  0.00  0.00    -0.028 C 
ATOM     12  C   UNL     1      -5.997   3.101 -21.772  0.00  0.00    +0.011 C 
ATOM     13  C   UNL     1      -5.575   3.829 -23.578  0.00  0.00    +0.011 C 
ATOM     14  C   UNL     1      -2.544   3.175 -23.469  0.00  0.00    +0.007 C 
ENDROOT
BRANCH   5  15
ATOM     15  O   UNL     1       0.563   2.100 -22.458  0.00  0.00    -0.391 OA
ATOM     16  H   UNL     1       1.410   2.510 -22.690  0.00  0.00    +0.210 HD
ENDBRANCH   5  15
BRANCH   6  17
ATOM     17  C   UNL     1      -0.657   2.142 -22.009  0.00  0.00    +0.165 C 
BRANCH  17  18
ATOM     18  O   UNL     1      -0.101   1.021 -22.363  0.00  0.00    -0.394 OA
ATOM     19  H   UNL     1      -0.780   0.416 -22.702  0.00  0.00    +0.209 HD
ENDBRANCH  17  18
ENDBRANCH   6  17
TORSDOF 3
ENDMDL
MODEL 6
REMARK VINA RESULT:    -9.071      1.388      2.297
REMARK INTER + INTRA:          -7.985
REMARK INTER:                 -10.272
REMARK INTRA:                   2.288
REMARK UNBOUND:                 1.882
REMARK  Name = C[C@@H]1CC[C@H](O)[C@]2(CO)CC[C@@H]3[C@H]([C@H]12)C3(C)C             ZINC000225364289
REMARK  6 active torsions:
REMARK  status: ('A' for Active; 'I' for Inactive)
REMARK    1  A    between atoms: C_1  and  C_2
REMARK    2  A    between atoms: C_5  and  O_6
REMARK    3  A    between atoms: C_7  and  C_8
REMARK    4  A    between atoms: C_8  and  O_9
REMARK    5  A    between atoms: C_15  and  C_16
REMARK    6  A    between atoms: C_15  and  C_17
REMARK                            x       y       z     vdW  Elec       q    Type
REMARK                         _______ _______ _______ _____ _____    ______ ____
ROOT
ATOM      1  C   UNL     1      -1.340   2.220 -21.282  0.00  0.00    +0.008 C 
ATOM      2  C   UNL     1      -2.521   2.582 -21.688  0.00  0.00    -0.010 C 
ATOM      3  C   UNL     1      -3.551   2.425 -20.911  0.00  0.00    +0.006 C 
ATOM      4  C   UNL     1      -4.732   2.787 -21.316  0.00  0.00    +0.032 C 
ATOM      5  C   UNL     1      -4.883   3.305 -22.499  0.00  0.00    +0.123 C 
ATOM      6  C   UNL     1      -3.853   3.461 -23.277  0.00  0.00    +0.023 C 
ATOM      7  C   UNL     1      -4.004   3.979 -24.459  0.00  0.00    +0.012 C 
ATOM      8  C   UNL     1      -2.973   4.136 -25.237  0.00  0.00    +0.005 C 
ATOM      9  C   UNL     1      -1.792   3.774 -24.831  0.00  0.00    -0.001 C 
ATOM     10  C   UNL     1      -1.641   3.256 -23.648  0.00  0.00    +0.003 C 
ATOM     11  C   UNL     1      -0.611   3.412 -24.425  0.00  0.00    -0.028 C 
ATOM     12  C   UNL     1       0.094   3.733 -25.470  0.00  0.00    +0.011 C 
ATOM     13  C   UNL     1       0.325   2.940 -23.657  0.00  0.00    +0.011 C 
ATOM     14  C   UNL     1      -2.672   3.100 -22.871  0.00  0.00    +0.007 C 
ENDROOT
BRANCH   5  15
ATOM     15  O   UNL     1      -6.064   3.666 -22.905  0.00  0.00    -0.391 OA
ATOM     16  H   UNL     1      -6.371   3.054 -23.591  0.00  0.00    +0.210 HD
ENDBRANCH   5  15
BRANCH   6  17
ATOM     17  C   UNL     1      -5.034   3.823 -23.682  0.00  0.00    +0.165 C 
BRANCH  17  18
ATOM     18  O   UNL     1      -6.058   3.707 -22.889  0.00  0.00    -0.394 OA
ATOM     19  H   UNL     1      -6.561   4.537 -22.887  0.00  0.00    +0.209 HD
ENDBRANCH  17  18
ENDBRANCH   6  17
TORSDOF 3
ENDMDL
MODEL 7
REMARK VINA RESULT:    -9.029      1.590      3.688
REMARK INTER + INTRA:          -7.939
REMARK INTER:                  -9.924
REMARK INTRA:                   1.985
REMARK UNBOUND:                 1.882
REMARK  Name = C[C@@H]1CC[C@H](O)[C@]2(CO)CC[C@@H]3[C@H]([C@H]12)C3(C)C             ZINC000225364289
REMARK  6 active torsions:
REMARK  status: ('A' for Active; 'I' for Inactive)
REMARK    1  A    between atoms: C_1  and  C_2
REMARK    2  A    between atoms: C_5  and  O_6
REMARK    3  A    between atoms: C_7  and  C_8
REMARK    4  A    between atoms: C_8  and  O_9
REMARK    5  A    between atoms: C_15  and  C_16
REMARK    6  A    between atoms: C_15  and  C_17
REMARK                            x       y       z     vdW  Elec       q    Type
REMARK                         _______ _______ _______ _____ _____    ______ ____
ROOT
ATOM      1  C   UNL     1      -1.481   2.253 -20.999  0.00  0.00    +0.008 C 
ATOM      2  C   UNL     1      -1.224   2.640 -22.213  0.00  0.00    -0.010 C 
ATOM      3  C   UNL     1      -0.000   2.637 -22.651  0.00  0.00    +0.006 C 
ATOM      4  C   UNL     1       0.257   3.024 -23.865  0.00  0.00    +0.032 C 
ATOM      5  C   UNL     1      -0.711   3.414 -24.642  0.00  0.00    +0.123 C 
ATOM      6  C   UNL     1      -1.935   3.416 -24.204  0.00  0.00    +0.023 C 
ATOM      7  C   UNL     1      -2.902   3.805 -24.981  0.00  0.00    +0.012 C 
ATOM      8  C   UNL     1      -4.126   3.808 -24.543  0.00  0.00    +0.005 C 
ATOM      9  C   UNL     1      -4.383   3.421 -23.329  0.00  0.00    -0.001 C 
ATOM     10  C   UNL     1      -3.416   3.032 -22.552  0.00  0.00    +0.003 C 
ATOM     11  C   UNL     1      -4.640   3.034 -22.115  0.00  0.00    -0.028 C 
ATOM     12  C   UNL     1      -5.931   3.190 -22.097  0.00  0.00    +0.011 C 
ATOM     13  C   UNL     1      -4.449   2.593 -20.907  0.00  0.00    +0.011 C 
ATOM     14  C   UNL     1      -2.192   3.029 -22.990  0.00  0.00    +0.007 C 
ENDROOT
BRANCH   5  15
ATOM     15  O   UNL     1      -0.454   3.800 -25.856  0.00  0.00    -0.391 OA
ATOM     16  H   UNL     1      -0.330   4.762 -25.869  0.00  0.00    +0.210 HD
ENDBRANCH   5  15
BRANCH   6  17
ATOM     17  C   UNL     1      -1.678   3.803 -25.419  0.00  0.00    +0.165 C 
BRANCH  17  18
ATOM     18  O   UNL     1      -0.767   3.191 -26.117  0.00  0.00    -0.394 OA
ATOM     19  H   UNL     1      -0.416   2.444 -25.607  0.00  0.00    +0.209 HD
ENDBRANCH  17  18
ENDBRANCH   6  17
TORSDOF 3
ENDMDL
MODEL 8
REMARK VINA RESULT:    -8.982      2.209      4.125
REMARK INTER + INTRA:          -7.888
REMARK INTER:                  -9.779
REMARK INTRA:                   1.892
REMARK UNBOUND:                 1.882
REMARK  Name = C[C@@H]1CC[C@H](O)[C@]2(CO)CC[C@@H]3[C@H]([C@H]12)C3(C)C             ZINC000225364289
REMARK  6 active torsions:
REMARK  status: ('A' for Active; 'I' for Inactive)
REMARK    1  A    between atoms: C_1  and  C_2
REMARK    2  A    between atoms: C_5  and  O_6
REMARK    3  A    between atoms: C_7  and  C_8
REMARK    4  A    between atoms: C_8  and  O_9
REMARK    5  A    between atoms: C_15  and  C_16
REMARK    6  A    between atoms: C_15  and  C_17
REMARK                            x       y       z     vdW  Elec       q    Type
REMARK                         _______ _______ _______ _____ _____    ______ ____
ROOT
ATOM      1  C   UNL     1      -3.258   2.558 -21.041  0.00  0.00    +0.008 C 
ATOM      2  C   UNL     1      -2.161   2.552 -21.740  0.00  0.00    -0.010 C 
ATOM      3  C   UNL     1      -1.053   2.129 -21.208  0.00  0.00    +0.006 C 
ATOM      4  C   UNL     1       0.043   2.123 -21.907  0.00  0.00    +0.032 C 
ATOM      5  C   UNL     1       0.031   2.540 -23.138  0.00  0.00    +0.123 C 
ATOM      6  C   UNL     1      -1.076   2.964 -23.670  0.00  0.00    +0.023 C 
ATOM      7  C   UNL     1      -1.088   3.381 -24.902  0.00  0.00    +0.012 C 
ATOM      8  C   UNL     1      -2.196   3.805 -25.434  0.00  0.00    +0.005 C 
ATOM      9  C   UNL     1      -3.292   3.811 -24.735  0.00  0.00    -0.001 C 
ATOM     10  C   UNL     1      -3.281   3.393 -23.504  0.00  0.00    +0.003 C 
ATOM     11  C   UNL     1      -4.388   3.817 -24.036  0.00  0.00    -0.028 C 
ATOM     12  C   UNL     1      -5.215   4.297 -24.918  0.00  0.00    +0.011 C 
ATOM     13  C   UNL     1      -5.198   3.657 -23.032  0.00  0.00    +0.011 C 
ATOM     14  C   UNL     1      -2.173   2.970 -22.972  0.00  0.00    +0.007 C 
ENDROOT
BRANCH   5  15
ATOM     15  O   UNL     1       1.128   2.534 -23.837  0.00  0.00    -0.391 OA
ATOM     16  H   UNL     1       0.908   2.542 -24.781  0.00  0.00    +0.210 HD
ENDBRANCH   5  15
BRANCH   6  17
ATOM     17  C   UNL     1       0.020   2.958 -24.369  0.00  0.00    +0.165 C 
BRANCH  17  18
ATOM     18  O   UNL     1       0.766   1.894 -24.399  0.00  0.00    -0.394 OA
ATOM     19  H   UNL     1       0.806   1.502 -23.512  0.00  0.00    +0.209 HD
ENDBRANCH  17  18
ENDBRANCH   6  17
TORSDOF 3
ENDMDL
MODEL 9
REMARK VINA RESULT:    -8.761      2.135      3.341
REMARK INTER + INTRA:          -7.647
REMARK INTER:                  -9.529
REMARK INTRA:                   1.882
REMARK UNBOUND:                 1.882
REMARK  Name = C[C@@H]1CC[C@H](O)[C@]2(CO)CC[C@@H]3[C@H]([C@H]12)C3(C)C             ZINC000225364289
REMARK  6 active torsions:
REMARK  status: ('A' for Active; 'I' for Inactive)
REMARK    1  A    between atoms: C_1  and  C_2
REMARK    2  A    between atoms: C_5  and  O_6
REMARK    3  A    between atoms: C_7  and  C_8
REMARK    4  A    between atoms: C_8  and  O_9
REMARK    5  A    between atoms: C_15  and  C_16
REMARK    6  A    between atoms: C_15  and  C_17
REMARK                            x       y       z     vdW  Elec       q    Type
REMARK                         _______ _______ _______ _____ _____    ______ ____
ROOT
ATOM      1  C   UNL     1      -3.783   4.109 -25.281  0.00  0.00    +0.008 C 
ATOM      2  C   UNL     1      -3.947   3.716 -24.053  0.00  0.00    -0.010 C 
ATOM      3  C   UNL     1      -5.128   3.755 -23.510  0.00  0.00    +0.006 C 
ATOM      4  C   UNL     1      -5.292   3.362 -22.282  0.00  0.00    +0.032 C 
ATOM      5  C   UNL     1      -4.275   2.930 -21.596  0.00  0.00    +0.123 C 
ATOM      6  C   UNL     1      -3.095   2.891 -22.139  0.00  0.00    +0.023 C 
ATOM      7  C   UNL     1      -2.078   2.458 -21.453  0.00  0.00    +0.012 C 
ATOM      8  C   UNL     1      -0.897   2.419 -21.995  0.00  0.00    +0.005 C 
ATOM      9  C   UNL     1      -0.733   2.813 -23.224  0.00  0.00    -0.001 C 
ATOM     10  C   UNL     1      -1.750   3.245 -23.910  0.00  0.00    +0.003 C 
ATOM     11  C   UNL     1      -0.569   3.206 -24.452  0.00  0.00    -0.028 C 
ATOM     12  C   UNL     1       0.709   3.006 -24.584  0.00  0.00    +0.011 C 
ATOM     13  C   UNL     1      -0.848   3.668 -25.634  0.00  0.00    +0.011 C 
ATOM     14  C   UNL     1      -2.930   3.284 -23.367  0.00  0.00    +0.007 C 
ENDROOT
BRANCH   5  15
ATOM     15  O   UNL     1      -4.439   2.536 -20.368  0.00  0.00    -0.391 OA
ATOM     16  H   UNL     1      -4.399   1.569 -20.331  0.00  0.00    +0.210 HD
ENDBRANCH   5  15
BRANCH   6  17
ATOM     17  C   UNL     1      -3.259   2.497 -20.910  0.00  0.00    +0.165 C 
BRANCH  17  18
ATOM     18  O   UNL     1      -3.408   3.374 -19.962  0.00  0.00    -0.394 OA
ATOM     19  H   UNL     1      -2.740   3.223 -19.274  0.00  0.00    +0.209 HD
ENDBRANCH  17  18
ENDBRANCH   6  17
TORSDOF 3
ENDMDL
