MODEL 1
REMARK VINA RESULT:    -9.449      0.000      0.000
REMARK INTER + INTRA:          -9.725
REMARK INTER:                  -9.725
REMARK INTRA:                   0.000
REMARK UNBOUND:                 0.000
REMARK  Name = ZINC000019800967
REMARK  4 active torsions:
REMARK  status: ('A' for Active; 'I' for Inactive)
REMARK    1  A    between atoms: C_1  and  C_2
REMARK    2  A    between atoms: C_2  and  C_3
REMARK    3  A    between atoms: C_12  and  C_13
REMARK    4  A    between atoms: C_12  and  O_14
REMARK                            x       y       z     vdW  Elec       q    Type
REMARK                         _______ _______ _______ _____ _____    ______ ____
ROOT
ATOM      1  C   UNL     1      -3.681   3.969 -25.591  0.00  0.00    +0.012 C 
ATOM      2  C   UNL     1      -2.597   3.466 -25.079  0.00  0.00    -0.021 C 
ATOM      3  C   UNL     1      -1.789   2.933 -24.211  0.00  0.00    +0.065 C 
ATOM      4  C   UNL     1      -0.848   2.404 -23.486  0.00  0.00    +0.137 C 
ATOM      5  C   UNL     1      -0.902   2.019 -22.246  0.00  0.00    +0.075 C 
ATOM      6  C   UNL     1      -1.908   2.067 -21.424  0.00  0.00    +0.011 C 
ATOM      7  C   UNL     1      -3.110   2.511 -21.641  0.00  0.00    -0.004 C 
ATOM      8  C   UNL     1      -4.047   2.511 -20.740  0.00  0.00    +0.007 C 
ATOM      9  C   UNL     1      -5.118   3.018 -21.273  0.00  0.00    +0.035 C 
ATOM     10  C   UNL     1      -4.844   3.331 -22.504  0.00  0.00    +0.067 C 
ATOM     11  C   UNL     1      -4.828   3.727 -23.742  0.00  0.00    +0.041 C 
ATOM     12  C   UNL     1      -3.602   3.018 -22.732  0.00  0.00    +0.028 C 
ATOM     13  O   UNL     1       0.297   2.240 -24.079  0.00  0.00    -0.297 OA
ATOM     14  C   UNL     1      -1.803   3.551 -26.105  0.00  0.00    +0.012 C 
ATOM     15  C   UNL     1      -3.015   3.206 -23.876  0.00  0.00    +0.012 C 
ENDROOT
BRANCH  10  16
ATOM     16  O   UNL     1      -6.081   3.727 -22.536  0.00  0.00    -0.389 OA
ATOM     17  H   UNL     1      -6.644   3.067 -22.101  0.00  0.00    +0.210 HD
ENDBRANCH  10  16
TORSDOF 1
ENDMDL
MODEL 2
REMARK VINA RESULT:    -9.239      0.747      3.696
REMARK INTER + INTRA:          -9.509
REMARK INTER:                  -9.509
REMARK INTRA:                   0.000
REMARK UNBOUND:                 0.000
REMARK  Name = ZINC000019800967
REMARK  4 active torsions:
REMARK  status: ('A' for Active; 'I' for Inactive)
REMARK    1  A    between atoms: C_1  and  C_2
REMARK    2  A    between atoms: C_2  and  C_3
REMARK    3  A    between atoms: C_12  and  C_13
REMARK    4  A    between atoms: C_12  and  O_14
REMARK                            x       y       z     vdW  Elec       q    Type
REMARK                         _______ _______ _______ _____ _____    ______ ____
ROOT
ATOM      1  C   UNL     1      -2.943   3.664 -25.651  0.00  0.00    +0.012 C 
ATOM      2  C   UNL     1      -3.705   3.625 -24.598  0.00  0.00    -0.021 C 
ATOM      3  C   UNL     1      -4.082   3.428 -23.369  0.00  0.00    +0.065 C 
ATOM      4  C   UNL     1      -4.633   3.297 -22.199  0.00  0.00    +0.137 C 
ATOM      5  C   UNL     1      -4.100   2.861 -21.097  0.00  0.00    +0.075 C 
ATOM      6  C   UNL     1      -2.884   2.448 -20.892  0.00  0.00    +0.011 C 
ATOM      7  C   UNL     1      -1.902   2.370 -21.740  0.00  0.00    -0.004 C 
ATOM      8  C   UNL     1      -0.717   1.938 -21.424  0.00  0.00    +0.007 C 
ATOM      9  C   UNL     1       0.025   1.986 -22.490  0.00  0.00    +0.035 C 
ATOM     10  C   UNL     1      -0.701   2.447 -23.465  0.00  0.00    +0.067 C 
ATOM     11  C   UNL     1      -1.201   2.877 -24.585  0.00  0.00    +0.041 C 
ATOM     12  C   UNL     1      -1.892   2.684 -23.001  0.00  0.00    +0.028 C 
ATOM     13  O   UNL     1      -5.882   3.649 -22.121  0.00  0.00    -0.297 OA
ATOM     14  C   UNL     1      -4.812   4.081 -25.104  0.00  0.00    +0.012 C 
ATOM     15  C   UNL     1      -2.862   3.155 -23.727  0.00  0.00    +0.012 C 
ENDROOT
BRANCH  10  16
ATOM     16  O   UNL     1       0.385   2.300 -24.163  0.00  0.00    -0.389 OA
ATOM     17  H   UNL     1       0.241   2.637 -25.061  0.00  0.00    +0.210 HD
ENDBRANCH  10  16
TORSDOF 1
ENDMDL
MODEL 3
REMARK VINA RESULT:    -9.150      1.387      4.118
REMARK INTER + INTRA:          -9.418
REMARK INTER:                  -9.418
REMARK INTRA:                   0.000
REMARK UNBOUND:                 0.000
REMARK  Name = ZINC000019800967
REMARK  4 active torsions:
REMARK  status: ('A' for Active; 'I' for Inactive)
REMARK    1  A    between atoms: C_1  and  C_2
REMARK    2  A    between atoms: C_2  and  C_3
REMARK    3  A    between atoms: C_12  and  C_13
REMARK    4  A    between atoms: C_12  and  O_14
REMARK                            x       y       z     vdW  Elec       q    Type
REMARK                         _______ _______ _______ _____ _____    ______ ____
ROOT
ATOM      1  C   UNL     1      -0.454   2.391 -22.991  0.00  0.00    +0.012 C 
ATOM      2  C   UNL     1      -1.513   2.536 -22.250  0.00  0.00    -0.021 C 
ATOM      3  C   UNL     1      -2.741   2.798 -21.912  0.00  0.00    +0.065 C 
ATOM      4  C   UNL     1      -3.913   3.013 -21.392  0.00  0.00    +0.137 C 
ATOM      5  C   UNL     1      -5.001   3.407 -21.984  0.00  0.00    +0.075 C 
ATOM      6  C   UNL     1      -5.187   3.683 -23.241  0.00  0.00    +0.011 C 
ATOM      7  C   UNL     1      -4.329   3.633 -24.216  0.00  0.00    -0.004 C 
ATOM      8  C   UNL     1      -4.625   3.933 -25.445  0.00  0.00    +0.007 C 
ATOM      9  C   UNL     1      -3.554   3.781 -26.165  0.00  0.00    +0.035 C 
ATOM     10  C   UNL     1      -2.595   3.387 -25.381  0.00  0.00    +0.067 C 
ATOM     11  C   UNL     1      -1.488   2.995 -24.823  0.00  0.00    +0.041 C 
ATOM     12  C   UNL     1      -3.074   3.295 -24.176  0.00  0.00    +0.028 C 
ATOM     13  O   UNL     1      -4.009   2.807 -20.112  0.00  0.00    -0.297 OA
ATOM     14  C   UNL     1      -1.026   2.199 -21.093  0.00  0.00    +0.012 C 
ATOM     15  C   UNL     1      -2.367   2.924 -23.150  0.00  0.00    +0.012 C 
ENDROOT
BRANCH  10  16
ATOM     16  O   UNL     1      -1.884   3.396 -26.469  0.00  0.00    -0.389 OA
ATOM     17  H   UNL     1      -2.017   2.564 -26.949  0.00  0.00    +0.210 HD
ENDBRANCH  10  16
TORSDOF 1
ENDMDL
MODEL 4
REMARK VINA RESULT:    -9.080      1.466      2.502
REMARK INTER + INTRA:          -9.345
REMARK INTER:                  -9.345
REMARK INTRA:                   0.000
REMARK UNBOUND:                 0.000
REMARK  Name = ZINC000019800967
REMARK  4 active torsions:
REMARK  status: ('A' for Active; 'I' for Inactive)
REMARK    1  A    between atoms: C_1  and  C_2
REMARK    2  A    between atoms: C_2  and  C_3
REMARK    3  A    between atoms: C_12  and  C_13
REMARK    4  A    between atoms: C_12  and  O_14
REMARK                            x       y       z     vdW  Elec       q    Type
REMARK                         _______ _______ _______ _____ _____    ______ ____
ROOT
ATOM      1  C   UNL     1      -0.733   3.482 -25.353  0.00  0.00    +0.012 C 
ATOM      2  C   UNL     1      -0.768   3.070 -24.120  0.00  0.00    -0.021 C 
ATOM      3  C   UNL     1      -1.237   2.770 -22.945  0.00  0.00    +0.065 C 
ATOM      4  C   UNL     1      -1.523   2.416 -21.727  0.00  0.00    +0.137 C 
ATOM      5  C   UNL     1      -2.674   2.452 -21.123  0.00  0.00    +0.075 C 
ATOM      6  C   UNL     1      -3.821   2.851 -21.586  0.00  0.00    +0.011 C 
ATOM      7  C   UNL     1      -4.101   3.311 -22.769  0.00  0.00    -0.004 C 
ATOM      8  C   UNL     1      -5.294   3.683 -23.128  0.00  0.00    +0.007 C 
ATOM      9  C   UNL     1      -5.233   4.090 -24.361  0.00  0.00    +0.035 C 
ATOM     10  C   UNL     1      -4.005   3.969 -24.764  0.00  0.00    +0.067 C 
ATOM     11  C   UNL     1      -2.871   3.947 -25.400  0.00  0.00    +0.041 C 
ATOM     12  C   UNL     1      -3.304   3.487 -23.780  0.00  0.00    +0.028 C 
ATOM     13  O   UNL     1      -0.529   1.968 -21.021  0.00  0.00    -0.297 OA
ATOM     14  C   UNL     1       0.481   2.752 -23.952  0.00  0.00    +0.012 C 
ATOM     15  C   UNL     1      -2.029   3.247 -23.859  0.00  0.00    +0.012 C 
ENDROOT
BRANCH  10  16
ATOM     16  O   UNL     1      -4.467   4.445 -25.881  0.00  0.00    -0.389 OA
ATOM     17  H   UNL     1      -3.728   4.739 -26.438  0.00  0.00    +0.210 HD
ENDBRANCH  10  16
TORSDOF 1
ENDMDL
MODEL 5
REMARK VINA RESULT:    -9.047      1.296      4.295
REMARK INTER + INTRA:          -9.311
REMARK INTER:                  -9.311
REMARK INTRA:                   0.000
REMARK UNBOUND:                 0.000
REMARK  Name = ZINC000019800967
REMARK  4 active torsions:
REMARK  status: ('A' for Active; 'I' for Inactive)
REMARK    1  A    between atoms: C_1  and  C_2
REMARK    2  A    between atoms: C_2  and  C_3
REMARK    3  A    between atoms: C_12  and  C_13
REMARK    4  A    between atoms: C_12  and  O_14
REMARK                            x       y       z     vdW  Elec       q    Type
REMARK                         _______ _______ _______ _____ _____    ______ ____
ROOT
ATOM      1  C   UNL     1      -4.094   2.603 -21.029  0.00  0.00    +0.012 C 
ATOM      2  C   UNL     1      -4.262   3.086 -22.225  0.00  0.00    -0.021 C 
ATOM      3  C   UNL     1      -3.988   3.473 -23.436  0.00  0.00    +0.065 C 
ATOM      4  C   UNL     1      -3.904   3.907 -24.659  0.00  0.00    +0.137 C 
ATOM      5  C   UNL     1      -2.859   3.953 -25.431  0.00  0.00    +0.075 C 
ATOM      6  C   UNL     1      -1.642   3.577 -25.173  0.00  0.00    +0.011 C 
ATOM      7  C   UNL     1      -1.169   3.061 -24.077  0.00  0.00    -0.004 C 
ATOM      8  C   UNL     1       0.076   2.718 -23.927  0.00  0.00    +0.007 C 
ATOM      9  C   UNL     1       0.218   2.239 -22.727  0.00  0.00    +0.035 C 
ATOM     10  C   UNL     1      -0.937   2.286 -22.136  0.00  0.00    +0.067 C 
ATOM     11  C   UNL     1      -1.960   2.225 -21.335  0.00  0.00    +0.041 C 
ATOM     12  C   UNL     1      -1.796   2.794 -22.970  0.00  0.00    +0.028 C 
ATOM     13  O   UNL     1      -5.009   4.355 -25.176  0.00  0.00    -0.297 OA
ATOM     14  C   UNL     1      -5.531   3.362 -22.181  0.00  0.00    +0.012 C 
ATOM     15  C   UNL     1      -3.050   2.977 -22.684  0.00  0.00    +0.012 C 
ENDROOT
BRANCH  10  16
ATOM     16  O   UNL     1      -0.294   1.765 -21.134  0.00  0.00    -0.389 OA
ATOM     17  H   UNL     1       0.428   2.357 -20.870  0.00  0.00    +0.210 HD
ENDBRANCH  10  16
TORSDOF 1
ENDMDL
MODEL 6
REMARK VINA RESULT:    -8.930      1.776      3.035
REMARK INTER + INTRA:          -9.191
REMARK INTER:                  -9.191
REMARK INTRA:                   0.000
REMARK UNBOUND:                 0.000
REMARK  Name = ZINC000019800967
REMARK  4 active torsions:
REMARK  status: ('A' for Active; 'I' for Inactive)
REMARK    1  A    between atoms: C_1  and  C_2
REMARK    2  A    between atoms: C_2  and  C_3
REMARK    3  A    between atoms: C_12  and  C_13
REMARK    4  A    between atoms: C_12  and  O_14
REMARK                            x       y       z     vdW  Elec       q    Type
REMARK                         _______ _______ _______ _____ _____    ______ ____
ROOT
ATOM      1  C   UNL     1      -0.357   3.607 -23.211  0.00  0.00    +0.012 C 
ATOM      2  C   UNL     1      -1.131   3.621 -24.257  0.00  0.00    -0.021 C 
ATOM      3  C   UNL     1      -2.215   3.621 -24.974  0.00  0.00    +0.065 C 
ATOM      4  C   UNL     1      -3.180   3.627 -25.845  0.00  0.00    +0.137 C 
ATOM      5  C   UNL     1      -4.462   3.597 -25.633  0.00  0.00    +0.075 C 
ATOM      6  C   UNL     1      -5.097   3.554 -24.499  0.00  0.00    +0.011 C 
ATOM      7  C   UNL     1      -4.604   3.530 -23.297  0.00  0.00    -0.004 C 
ATOM      8  C   UNL     1      -5.338   3.487 -22.224  0.00  0.00    +0.007 C 
ATOM      9  C   UNL     1      -4.544   3.473 -21.196  0.00  0.00    +0.035 C 
ATOM     10  C   UNL     1      -3.320   3.508 -21.631  0.00  0.00    +0.067 C 
ATOM     11  C   UNL     1      -2.032   3.537 -21.805  0.00  0.00    +0.041 C 
ATOM     12  C   UNL     1      -3.357   3.543 -22.931  0.00  0.00    +0.028 C 
ATOM     13  O   UNL     1      -2.815   3.668 -27.092  0.00  0.00    -0.297 OA
ATOM     14  C   UNL     1      -0.237   3.664 -25.199  0.00  0.00    +0.012 C 
ATOM     15  C   UNL     1      -2.294   3.583 -23.677  0.00  0.00    +0.012 C 
ENDROOT
BRANCH  10  16
ATOM     16  O   UNL     1      -3.013   3.479 -20.369  0.00  0.00    -0.389 OA
ATOM     17  H   UNL     1      -2.838   2.563 -20.100  0.00  0.00    +0.210 HD
ENDBRANCH  10  16
TORSDOF 1
ENDMDL
MODEL 7
REMARK VINA RESULT:    -8.877      0.708      4.745
REMARK INTER + INTRA:          -9.136
REMARK INTER:                  -9.136
REMARK INTRA:                   0.000
REMARK UNBOUND:                 0.000
REMARK  Name = ZINC000019800967
REMARK  4 active torsions:
REMARK  status: ('A' for Active; 'I' for Inactive)
REMARK    1  A    between atoms: C_1  and  C_2
REMARK    2  A    between atoms: C_2  and  C_3
REMARK    3  A    between atoms: C_12  and  C_13
REMARK    4  A    between atoms: C_12  and  O_14
REMARK                            x       y       z     vdW  Elec       q    Type
REMARK                         _______ _______ _______ _____ _____    ______ ____
ROOT
ATOM      1  C   UNL     1      -1.953   2.367 -21.088  0.00  0.00    +0.012 C 
ATOM      2  C   UNL     1      -3.154   2.709 -21.451  0.00  0.00    -0.021 C 
ATOM      3  C   UNL     1      -4.137   3.103 -22.206  0.00  0.00    +0.065 C 
ATOM      4  C   UNL     1      -5.230   3.481 -22.800  0.00  0.00    +0.137 C 
ATOM      5  C   UNL     1      -5.398   3.825 -24.042  0.00  0.00    +0.075 C 
ATOM      6  C   UNL     1      -4.516   3.877 -24.996  0.00  0.00    +0.011 C 
ATOM      7  C   UNL     1      -3.248   3.598 -24.943  0.00  0.00    -0.004 C 
ATOM      8  C   UNL     1      -2.452   3.686 -25.967  0.00  0.00    +0.007 C 
ATOM      9  C   UNL     1      -1.261   3.340 -25.581  0.00  0.00    +0.035 C 
ATOM     10  C   UNL     1      -1.320   3.038 -24.319  0.00  0.00    +0.067 C 
ATOM     11  C   UNL     1      -1.114   2.687 -23.084  0.00  0.00    +0.041 C 
ATOM     12  C   UNL     1      -2.548   3.197 -23.924  0.00  0.00    +0.028 C 
ATOM     13  O   UNL     1      -6.294   3.518 -22.055  0.00  0.00    -0.297 OA
ATOM     14  C   UNL     1      -3.782   2.560 -20.323  0.00  0.00    +0.012 C 
ATOM     15  C   UNL     1      -2.943   2.977 -22.705  0.00  0.00    +0.012 C 
ENDROOT
BRANCH  10  16
ATOM     16  O   UNL     1      -0.048   2.805 -24.454  0.00  0.00    -0.389 OA
ATOM     17  H   UNL     1       0.207   2.933 -25.381  0.00  0.00    +0.210 HD
ENDBRANCH  10  16
TORSDOF 1
ENDMDL
MODEL 8
REMARK VINA RESULT:    -8.807      1.050      2.965
REMARK INTER + INTRA:          -9.064
REMARK INTER:                  -9.064
REMARK INTRA:                   0.000
REMARK UNBOUND:                 0.000
REMARK  Name = ZINC000019800967
REMARK  4 active torsions:
REMARK  status: ('A' for Active; 'I' for Inactive)
REMARK    1  A    between atoms: C_1  and  C_2
REMARK    2  A    between atoms: C_2  and  C_3
REMARK    3  A    between atoms: C_12  and  C_13
REMARK    4  A    between atoms: C_12  and  O_14
REMARK                            x       y       z     vdW  Elec       q    Type
REMARK                         _______ _______ _______ _____ _____    ______ ____
ROOT
ATOM      1  C   UNL     1      -1.088   2.143 -21.222  0.00  0.00    +0.012 C 
ATOM      2  C   UNL     1      -0.870   2.514 -22.449  0.00  0.00    -0.021 C 
ATOM      3  C   UNL     1      -1.097   2.966 -23.647  0.00  0.00    +0.065 C 
ATOM      4  C   UNL     1      -1.132   3.389 -24.876  0.00  0.00    +0.137 C 
ATOM      5  C   UNL     1      -2.152   3.825 -25.553  0.00  0.00    +0.075 C 
ATOM      6  C   UNL     1      -3.389   3.945 -25.170  0.00  0.00    +0.011 C 
ATOM      7  C   UNL     1      -3.909   3.658 -24.014  0.00  0.00    -0.004 C 
ATOM      8  C   UNL     1      -5.170   3.819 -23.738  0.00  0.00    +0.007 C 
ATOM      9  C   UNL     1      -5.362   3.442 -22.509  0.00  0.00    +0.035 C 
ATOM     10  C   UNL     1      -4.222   3.048 -22.026  0.00  0.00    +0.067 C 
ATOM     11  C   UNL     1      -3.225   2.607 -21.318  0.00  0.00    +0.041 C 
ATOM     12  C   UNL     1      -3.324   3.182 -22.957  0.00  0.00    +0.028 C 
ATOM     13  O   UNL     1       0.003   3.375 -25.511  0.00  0.00    -0.297 OA
ATOM     14  C   UNL     1       0.406   2.284 -22.531  0.00  0.00    +0.012 C 
ATOM     15  C   UNL     1      -2.072   2.873 -22.793  0.00  0.00    +0.012 C 
ENDROOT
BRANCH  10  16
ATOM     16  O   UNL     1      -4.911   2.822 -20.948  0.00  0.00    -0.389 OA
ATOM     17  H   UNL     1      -5.202   3.666 -20.566  0.00  0.00    +0.210 HD
ENDBRANCH  10  16
TORSDOF 1
ENDMDL
MODEL 9
REMARK VINA RESULT:    -8.239      1.573      3.628
REMARK INTER + INTRA:          -8.480
REMARK INTER:                  -8.480
REMARK INTRA:                   0.000
REMARK UNBOUND:                 0.000
REMARK  Name = ZINC000019800967
REMARK  4 active torsions:
REMARK  status: ('A' for Active; 'I' for Inactive)
REMARK    1  A    between atoms: C_1  and  C_2
REMARK    2  A    between atoms: C_2  and  C_3
REMARK    3  A    between atoms: C_12  and  C_13
REMARK    4  A    between atoms: C_12  and  O_14
REMARK                            x       y       z     vdW  Elec       q    Type
REMARK                         _______ _______ _______ _____ _____    ______ ____
ROOT
ATOM      1  C   UNL     1      -0.071   1.494 -21.010  0.00  0.00    +0.012 C 
ATOM      2  C   UNL     1       0.489   1.909 -22.108  0.00  0.00    -0.021 C 
ATOM      3  C   UNL     1       0.621   2.451 -23.283  0.00  0.00    +0.065 C 
ATOM      4  C   UNL     1       0.943   2.946 -24.441  0.00  0.00    +0.137 C 
ATOM      5  C   UNL     1       0.175   3.529 -25.313  0.00  0.00    +0.075 C 
ATOM      6  C   UNL     1      -1.102   3.762 -25.243  0.00  0.00    +0.011 C 
ATOM      7  C   UNL     1      -1.927   3.468 -24.283  0.00  0.00    -0.004 C 
ATOM      8  C   UNL     1      -3.195   3.750 -24.318  0.00  0.00    +0.007 C 
ATOM      9  C   UNL     1      -3.732   3.326 -23.213  0.00  0.00    +0.035 C 
ATOM     10  C   UNL     1      -2.796   2.782 -22.494  0.00  0.00    +0.067 C 
ATOM     11  C   UNL     1      -2.059   2.194 -21.599  0.00  0.00    +0.041 C 
ATOM     12  C   UNL     1      -1.679   2.870 -23.156  0.00  0.00    +0.028 C 
ATOM     13  O   UNL     1       2.196   2.844 -24.771  0.00  0.00    -0.297 OA
ATOM     14  C   UNL     1       1.717   1.546 -21.887  0.00  0.00    +0.012 C 
ATOM     15  C   UNL     1      -0.545   2.417 -22.710  0.00  0.00    +0.012 C 
ENDROOT
BRANCH  10  16
ATOM     16  O   UNL     1      -3.757   2.572 -21.645  0.00  0.00    -0.389 OA
ATOM     17  H   UNL     1      -3.382   2.284 -20.798  0.00  0.00    +0.210 HD
ENDBRANCH  10  16
TORSDOF 1
ENDMDL
