MODEL 1
REMARK VINA RESULT:    -9.100      0.000      0.000
REMARK INTER + INTRA:         -11.148
REMARK INTER:                 -11.775
REMARK INTRA:                   0.626
REMARK UNBOUND:                 0.612
REMARK  Name = ZINC000004098683
REMARK  10 active torsions:
REMARK  status: ('A' for Active; 'I' for Inactive)
REMARK    1  A    between atoms: C_1  and  O_2
REMARK    2  A    between atoms: O_2  and  C_3
REMARK    3  A    between atoms: C_5  and  O_6
REMARK    4  A    between atoms: C_7  and  C_8
REMARK    5  A    between atoms: C_9  and  C_10
REMARK    6  A    between atoms: C_12  and  O_13
REMARK    7  A    between atoms: C_22  and  O_23
REMARK    8  A    between atoms: C_27  and  O_28
REMARK    9  A    between atoms: C_29  and  C_30
REMARK   10  A    between atoms: C_30  and  C_31
REMARK                            x       y       z     vdW  Elec       q    Type
REMARK                         _______ _______ _______ _____ _____    ______ ____
ROOT
ATOM      1  C   UNL     1      -0.507   3.566 -24.534  0.00  0.00    +0.004 A 
ATOM      2  C   UNL     1      -0.564   3.702 -25.861  0.00  0.00    -0.038 A 
ATOM      3  C   UNL     1      -1.750   3.751 -26.473  0.00  0.00    +0.050 A 
ATOM      4  C   UNL     1      -2.873   3.664 -25.762  0.00  0.00    +0.129 A 
ATOM      5  C   UNL     1      -2.815   3.528 -24.435  0.00  0.00    +0.075 A 
ATOM      6  C   UNL     1      -3.938   3.440 -23.721  0.00  0.00    +0.202 C 
ATOM      7  O   UNL     1      -5.124   3.489 -24.334  0.00  0.00    -0.286 OA
ATOM      8  C   UNL     1      -3.880   3.304 -22.395  0.00  0.00    +0.075 A 
ATOM      9  C   UNL     1      -5.004   3.216 -21.679  0.00  0.00    +0.128 A 
ATOM     10  C   UNL     1      -4.944   3.080 -20.356  0.00  0.00    +0.046 A 
ATOM     11  C   UNL     1      -3.760   3.031 -19.741  0.00  0.00    +0.004 A 
ATOM     12  C   UNL     1      -2.637   3.118 -20.456  0.00  0.00    +0.012 A 
ATOM     13  C   UNL     1      -2.699   3.255 -21.783  0.00  0.00    +0.037 A 
ATOM     14  C   UNL     1      -1.577   3.342 -22.495  0.00  0.00    +0.195 C 
ATOM     15  O   UNL     1      -0.923   3.315 -22.152  0.00  0.00    -0.287 OA
ATOM     16  C   UNL     1       0.559   3.790 -26.574  0.00  0.00    +0.044 C 
ATOM     17  C   UNL     1      -1.631   3.479 -23.823  0.00  0.00    +0.045 A 
ENDROOT
BRANCH   1  21
ATOM     18  C   UNL     1       3.032   3.459 -22.667  0.00  0.00    +0.138 A 
ATOM     19  C   UNL     1       2.394   4.619 -22.835  0.00  0.00    +0.092 A 
ATOM     20  C   UNL     1       1.215   4.645 -23.458  0.00  0.00    +0.132 A 
ATOM     21  C   UNL     1       0.674   3.516 -23.914  0.00  0.00    +0.067 A 
ATOM     22  C   UNL     1       1.318   2.359 -23.742  0.00  0.00    +0.142 A 
ATOM     23  C   UNL     1       2.496   2.329 -23.120  0.00  0.00    +0.101 A 
BRANCH  23  24
ATOM     24  C   UNL     1       3.123   1.164 -22.960  0.00  0.00    +0.167 C 
ATOM     25  O   UNL     1       3.813   0.633 -23.975  0.00  0.00    -0.292 OA
ATOM     26  C   UNL     1       3.064   0.528 -21.792  0.00  0.00    +0.092 C 
ENDBRANCH  23  24
BRANCH  22  27
ATOM     27  O   UNL     1       1.019   1.730 -23.995  0.00  0.00    -0.505 OA
ATOM     28  H   UNL     1       0.273   1.360 -23.565  0.00  0.00    +0.292 HD
ENDBRANCH  22  27
BRANCH  18  30
ATOM     29  C   UNL     1       5.289   3.958 -22.614  0.00  0.00    +0.277 C 
ATOM     30  O   UNL     1       4.214   3.422 -22.044  0.00  0.00    -0.494 OA
ENDBRANCH  18  30
BRANCH  20  31
ATOM     31  O   UNL     1       0.579   5.808 -23.624  0.00  0.00    -0.506 OA
ATOM     32  H   UNL     1      -0.182   6.002 -23.114  0.00  0.00    +0.292 HD
ENDBRANCH  20  31
ENDBRANCH   1  21
BRANCH   4  33
ATOM     33  O   UNL     1      -4.059   3.713 -26.374  0.00  0.00    -0.506 OA
ATOM     34  H   UNL     1      -4.509   4.530 -26.458  0.00  0.00    +0.292 HD
ENDBRANCH   4  33
BRANCH   9  35
ATOM     35  O   UNL     1      -6.189   3.265 -22.293  0.00  0.00    -0.506 OA
ATOM     36  H   UNL     1      -6.295   3.780 -23.068  0.00  0.00    +0.292 HD
ENDBRANCH   9  35
TORSDOF 7
ENDMDL
MODEL 2
REMARK VINA RESULT:    -8.169      2.011      7.409
REMARK INTER + INTRA:          -9.945
REMARK INTER:                 -10.570
REMARK INTRA:                   0.625
REMARK UNBOUND:                 0.612
REMARK  Name = ZINC000004098683
REMARK  10 active torsions:
REMARK  status: ('A' for Active; 'I' for Inactive)
REMARK    1  A    between atoms: C_1  and  O_2
REMARK    2  A    between atoms: O_2  and  C_3
REMARK    3  A    between atoms: C_5  and  O_6
REMARK    4  A    between atoms: C_7  and  C_8
REMARK    5  A    between atoms: C_9  and  C_10
REMARK    6  A    between atoms: C_12  and  O_13
REMARK    7  A    between atoms: C_22  and  O_23
REMARK    8  A    between atoms: C_27  and  O_28
REMARK    9  A    between atoms: C_29  and  C_30
REMARK   10  A    between atoms: C_30  and  C_31
REMARK                            x       y       z     vdW  Elec       q    Type
REMARK                         _______ _______ _______ _____ _____    ______ ____
ROOT
ATOM      1  C   UNL     1       2.701   2.652 -23.371  0.00  0.00    +0.004 A 
ATOM      2  C   UNL     1       3.145   1.396 -23.467  0.00  0.00    -0.038 A 
ATOM      3  C   UNL     1       4.426   1.123 -23.209  0.00  0.00    +0.050 A 
ATOM      4  C   UNL     1       5.260   2.101 -22.858  0.00  0.00    +0.129 A 
ATOM      5  C   UNL     1       4.816   3.357 -22.762  0.00  0.00    +0.075 A 
ATOM      6  C   UNL     1       5.649   4.337 -22.410  0.00  0.00    +0.202 C 
ATOM      7  O   UNL     1       6.931   4.063 -22.153  0.00  0.00    -0.286 OA
ATOM      8  C   UNL     1       5.205   5.592 -22.315  0.00  0.00    +0.075 A 
ATOM      9  C   UNL     1       6.038   6.574 -21.963  0.00  0.00    +0.128 A 
ATOM     10  C   UNL     1       5.593   7.825 -21.868  0.00  0.00    +0.046 A 
ATOM     11  C   UNL     1       4.312   8.102 -22.125  0.00  0.00    +0.004 A 
ATOM     12  C   UNL     1       3.480   7.120 -22.477  0.00  0.00    +0.012 A 
ATOM     13  C   UNL     1       3.927   5.866 -22.572  0.00  0.00    +0.037 A 
ATOM     14  C   UNL     1       3.095   4.887 -22.923  0.00  0.00    +0.195 C 
ATOM     15  O   UNL     1       2.387   5.044 -23.065  0.00  0.00    -0.287 OA
ATOM     16  C   UNL     1       2.311   0.417 -23.819  0.00  0.00    +0.044 C 
ATOM     17  C   UNL     1       3.536   3.630 -23.020  0.00  0.00    +0.045 A 
ENDROOT
BRANCH   1  21
ATOM     18  C   UNL     1      -1.125   3.508 -24.179  0.00  0.00    +0.138 A 
ATOM     19  C   UNL     1      -0.201   3.580 -25.140  0.00  0.00    +0.092 A 
ATOM     20  C   UNL     1       1.072   3.293 -24.862  0.00  0.00    +0.132 A 
ATOM     21  C   UNL     1       1.422   2.935 -23.627  0.00  0.00    +0.067 A 
ATOM     22  C   UNL     1       0.492   2.865 -22.671  0.00  0.00    +0.142 A 
ATOM     23  C   UNL     1      -0.779   3.151 -22.945  0.00  0.00    +0.101 A 
BRANCH  23  24
ATOM     24  C   UNL     1      -1.692   3.075 -21.976  0.00  0.00    +0.167 C 
ATOM     25  O   UNL     1      -2.129   1.880 -21.565  0.00  0.00    -0.292 OA
ATOM     26  C   UNL     1      -2.168   4.186 -21.418  0.00  0.00    +0.092 C 
ENDBRANCH  23  24
BRANCH  22  27
ATOM     27  O   UNL     1       0.686   2.666 -21.984  0.00  0.00    -0.505 OA
ATOM     28  H   UNL     1       0.043   2.314 -21.399  0.00  0.00    +0.292 HD
ENDBRANCH  22  27
BRANCH  18  30
ATOM     29  C   UNL     1      -3.003   3.251 -25.503  0.00  0.00    +0.277 C 
ATOM     30  O   UNL     1      -2.402   3.793 -24.448  0.00  0.00    -0.494 OA
ENDBRANCH  18  30
BRANCH  20  31
ATOM     31  O   UNL     1       1.993   3.366 -25.826  0.00  0.00    -0.506 OA
ATOM     32  H   UNL     1       1.749   3.218 -26.718  0.00  0.00    +0.292 HD
ENDBRANCH  20  31
ENDBRANCH   1  21
BRANCH   4  33
ATOM     33  O   UNL     1       6.542   1.828 -22.600  0.00  0.00    -0.506 OA
ATOM     34  H   UNL     1       7.007   1.217 -23.137  0.00  0.00    +0.292 HD
ENDBRANCH   4  33
BRANCH   9  35
ATOM     35  O   UNL     1       7.319   6.299 -21.706  0.00  0.00    -0.506 OA
ATOM     36  H   UNL     1       7.626   6.278 -20.821  0.00  0.00    +0.292 HD
ENDBRANCH   9  35
TORSDOF 7
ENDMDL
MODEL 3
REMARK VINA RESULT:    -7.909      1.091      2.224
REMARK INTER + INTRA:          -9.609
REMARK INTER:                 -11.383
REMARK INTRA:                   1.773
REMARK UNBOUND:                 0.612
REMARK  Name = ZINC000004098683
REMARK  10 active torsions:
REMARK  status: ('A' for Active; 'I' for Inactive)
REMARK    1  A    between atoms: C_1  and  O_2
REMARK    2  A    between atoms: O_2  and  C_3
REMARK    3  A    between atoms: C_5  and  O_6
REMARK    4  A    between atoms: C_7  and  C_8
REMARK    5  A    between atoms: C_9  and  C_10
REMARK    6  A    between atoms: C_12  and  O_13
REMARK    7  A    between atoms: C_22  and  O_23
REMARK    8  A    between atoms: C_27  and  O_28
REMARK    9  A    between atoms: C_29  and  C_30
REMARK   10  A    between atoms: C_30  and  C_31
REMARK                            x       y       z     vdW  Elec       q    Type
REMARK                         _______ _______ _______ _____ _____    ______ ____
ROOT
ATOM      1  C   UNL     1       0.149   3.322 -24.295  0.00  0.00    +0.004 A 
ATOM      2  C   UNL     1       0.177   3.319 -25.630  0.00  0.00    -0.038 A 
ATOM      3  C   UNL     1      -0.964   3.395 -26.318  0.00  0.00    +0.050 A 
ATOM      4  C   UNL     1      -2.128   3.473 -25.675  0.00  0.00    +0.129 A 
ATOM      5  C   UNL     1      -2.156   3.476 -24.340  0.00  0.00    +0.075 A 
ATOM      6  C   UNL     1      -3.320   3.554 -23.695  0.00  0.00    +0.202 C 
ATOM      7  O   UNL     1      -4.462   3.630 -24.385  0.00  0.00    -0.286 OA
ATOM      8  C   UNL     1      -3.348   3.557 -22.361  0.00  0.00    +0.075 A 
ATOM      9  C   UNL     1      -4.513   3.635 -21.713  0.00  0.00    +0.128 A 
ATOM     10  C   UNL     1      -4.538   3.637 -20.383  0.00  0.00    +0.046 A 
ATOM     11  C   UNL     1      -3.399   3.562 -19.690  0.00  0.00    +0.004 A 
ATOM     12  C   UNL     1      -2.235   3.483 -20.337  0.00  0.00    +0.012 A 
ATOM     13  C   UNL     1      -2.211   3.481 -21.672  0.00  0.00    +0.037 A 
ATOM     14  C   UNL     1      -1.048   3.403 -22.316  0.00  0.00    +0.195 C 
ATOM     15  O   UNL     1      -0.419   3.361 -21.931  0.00  0.00    -0.287 OA
ATOM     16  C   UNL     1       1.342   3.241 -26.274  0.00  0.00    +0.044 C 
ATOM     17  C   UNL     1      -1.016   3.400 -23.652  0.00  0.00    +0.045 A 
ENDROOT
BRANCH   1  21
ATOM     18  C   UNL     1       3.547   3.053 -22.195  0.00  0.00    +0.138 A 
ATOM     19  C   UNL     1       2.743   1.995 -22.313  0.00  0.00    +0.092 A 
ATOM     20  C   UNL     1       1.612   2.094 -23.015  0.00  0.00    +0.132 A 
ATOM     21  C   UNL     1       1.285   3.246 -23.598  0.00  0.00    +0.067 A 
ATOM     22  C   UNL     1       2.095   4.301 -23.476  0.00  0.00    +0.142 A 
ATOM     23  C   UNL     1       3.224   4.206 -22.776  0.00  0.00    +0.101 A 
BRANCH  23  24
ATOM     24  C   UNL     1       4.019   5.272 -22.666  0.00  0.00    +0.167 C 
ATOM     25  O   UNL     1       3.520   6.431 -22.224  0.00  0.00    -0.292 OA
ATOM     26  C   UNL     1       5.305   5.182 -22.995  0.00  0.00    +0.092 C 
ENDBRANCH  23  24
BRANCH  22  27
ATOM     27  O   UNL     1       1.914   4.943 -23.799  0.00  0.00    -0.505 OA
ATOM     28  H   UNL     1       1.949   5.741 -23.309  0.00  0.00    +0.292 HD
ENDBRANCH  22  27
BRANCH  18  30
ATOM     29  C   UNL     1       5.112   1.784 -21.062  0.00  0.00    +0.277 C 
ATOM     30  O   UNL     1       4.681   2.965 -21.495  0.00  0.00    -0.494 OA
ENDBRANCH  18  30
BRANCH  20  31
ATOM     31  O   UNL     1       0.810   1.032 -23.130  0.00  0.00    -0.506 OA
ATOM     32  H   UNL     1       0.317   0.902 -23.916  0.00  0.00    +0.292 HD
ENDBRANCH  20  31
ENDBRANCH   1  21
BRANCH   4  33
ATOM     33  O   UNL     1      -3.270   3.549 -26.364  0.00  0.00    -0.506 OA
ATOM     34  H   UNL     1      -3.422   4.273 -26.939  0.00  0.00    +0.292 HD
ENDBRANCH   4  33
BRANCH   9  35
ATOM     35  O   UNL     1      -5.654   3.711 -22.404  0.00  0.00    -0.506 OA
ATOM     36  H   UNL     1      -5.633   3.757 -23.339  0.00  0.00    +0.292 HD
ENDBRANCH   9  35
TORSDOF 7
ENDMDL
MODEL 4
REMARK VINA RESULT:    -7.738      4.819      8.904
REMARK INTER + INTRA:          -9.388
REMARK INTER:                  -9.995
REMARK INTRA:                   0.607
REMARK UNBOUND:                 0.612
REMARK  Name = ZINC000004098683
REMARK  10 active torsions:
REMARK  status: ('A' for Active; 'I' for Inactive)
REMARK    1  A    between atoms: C_1  and  O_2
REMARK    2  A    between atoms: O_2  and  C_3
REMARK    3  A    between atoms: C_5  and  O_6
REMARK    4  A    between atoms: C_7  and  C_8
REMARK    5  A    between atoms: C_9  and  C_10
REMARK    6  A    between atoms: C_12  and  O_13
REMARK    7  A    between atoms: C_22  and  O_23
REMARK    8  A    between atoms: C_27  and  O_28
REMARK    9  A    between atoms: C_29  and  C_30
REMARK   10  A    between atoms: C_30  and  C_31
REMARK                            x       y       z     vdW  Elec       q    Type
REMARK                         _______ _______ _______ _____ _____    ______ ____
ROOT
ATOM      1  C   UNL     1       5.988   7.447 -21.844  0.00  0.00    +0.004 A 
ATOM      2  C   UNL     1       7.300   7.452 -21.596  0.00  0.00    -0.038 A 
ATOM      3  C   UNL     1       8.019   6.346 -21.805  0.00  0.00    +0.050 A 
ATOM      4  C   UNL     1       7.429   5.242 -22.261  0.00  0.00    +0.129 A 
ATOM      5  C   UNL     1       6.117   5.238 -22.509  0.00  0.00    +0.075 A 
ATOM      6  C   UNL     1       5.525   4.134 -22.965  0.00  0.00    +0.202 C 
ATOM      7  O   UNL     1       6.245   3.028 -23.174  0.00  0.00    -0.286 OA
ATOM      8  C   UNL     1       4.214   4.130 -23.212  0.00  0.00    +0.075 A 
ATOM      9  C   UNL     1       3.620   3.025 -23.669  0.00  0.00    +0.128 A 
ATOM     10  C   UNL     1       2.312   3.024 -23.915  0.00  0.00    +0.046 A 
ATOM     11  C   UNL     1       1.589   4.127 -23.707  0.00  0.00    +0.004 A 
ATOM     12  C   UNL     1       2.183   5.231 -23.251  0.00  0.00    +0.012 A 
ATOM     13  C   UNL     1       3.495   5.232 -23.004  0.00  0.00    +0.037 A 
ATOM     14  C   UNL     1       4.086   6.334 -22.549  0.00  0.00    +0.195 C 
ATOM     15  O   UNL     1       3.684   6.944 -22.434  0.00  0.00    -0.287 OA
ATOM     16  C   UNL     1       7.891   8.556 -21.140  0.00  0.00    +0.044 C 
ATOM     17  C   UNL     1       5.399   6.342 -22.299  0.00  0.00    +0.045 A 
ENDROOT
BRANCH   1  21
ATOM     18  C   UNL     1       3.799  10.733 -21.185  0.00  0.00    +0.138 A 
ATOM     19  C   UNL     1       3.938   9.814 -20.228  0.00  0.00    +0.092 A 
ATOM     20  C   UNL     1       4.670   8.722 -20.457  0.00  0.00    +0.132 A 
ATOM     21  C   UNL     1       5.261   8.548 -21.637  0.00  0.00    +0.067 A 
ATOM     22  C   UNL     1       5.118   9.473 -22.591  0.00  0.00    +0.142 A 
ATOM     23  C   UNL     1       4.388  10.564 -22.366  0.00  0.00    +0.101 A 
BRANCH  23  24
ATOM     24  C   UNL     1       4.258  11.475 -23.331  0.00  0.00    +0.167 C 
ATOM     25  O   UNL     1       5.248  12.343 -23.566  0.00  0.00    -0.292 OA
ATOM     26  C   UNL     1       3.145  11.522 -24.059  0.00  0.00    +0.092 C 
ENDBRANCH  23  24
BRANCH  22  27
ATOM     27  O   UNL     1       5.447   9.377 -23.248  0.00  0.00    -0.505 OA
ATOM     28  H   UNL     1       5.447   8.533 -23.653  0.00  0.00    +0.292 HD
ENDBRANCH  22  27
BRANCH  18  30
ATOM     29  C   UNL     1       3.374  12.650 -19.965  0.00  0.00    +0.277 C 
ATOM     30  O   UNL     1       3.069  11.830 -20.967  0.00  0.00    -0.494 OA
ENDBRANCH  18  30
BRANCH  20  31
ATOM     31  O   UNL     1       4.806   7.803 -19.496  0.00  0.00    -0.506 OA
ATOM     32  H   UNL     1       4.079   7.262 -19.260  0.00  0.00    +0.292 HD
ENDBRANCH  20  31
ENDBRANCH   1  21
BRANCH   4  33
ATOM     33  O   UNL     1       8.149   4.136 -22.470  0.00  0.00    -0.506 OA
ATOM     34  H   UNL     1       8.729   3.822 -21.805  0.00  0.00    +0.292 HD
ENDBRANCH   4  33
BRANCH   9  35
ATOM     35  O   UNL     1       4.341   1.921 -23.878  0.00  0.00    -0.506 OA
ATOM     36  H   UNL     1       4.996   1.908 -24.547  0.00  0.00    +0.292 HD
ENDBRANCH   9  35
TORSDOF 7
ENDMDL
MODEL 5
REMARK VINA RESULT:    -6.857      2.988      6.120
REMARK INTER + INTRA:          -8.249
REMARK INTER:                  -8.873
REMARK INTRA:                   0.624
REMARK UNBOUND:                 0.612
REMARK  Name = ZINC000004098683
REMARK  10 active torsions:
REMARK  status: ('A' for Active; 'I' for Inactive)
REMARK    1  A    between atoms: C_1  and  O_2
REMARK    2  A    between atoms: O_2  and  C_3
REMARK    3  A    between atoms: C_5  and  O_6
REMARK    4  A    between atoms: C_7  and  C_8
REMARK    5  A    between atoms: C_9  and  C_10
REMARK    6  A    between atoms: C_12  and  O_13
REMARK    7  A    between atoms: C_22  and  O_23
REMARK    8  A    between atoms: C_27  and  O_28
REMARK    9  A    between atoms: C_29  and  C_30
REMARK   10  A    between atoms: C_30  and  C_31
REMARK                            x       y       z     vdW  Elec       q    Type
REMARK                         _______ _______ _______ _____ _____    ______ ____
ROOT
ATOM      1  C   UNL     1       4.872   2.271 -22.334  0.00  0.00    +0.004 A 
ATOM      2  C   UNL     1       5.192   0.995 -22.107  0.00  0.00    -0.038 A 
ATOM      3  C   UNL     1       4.236   0.063 -22.094  0.00  0.00    +0.050 A 
ATOM      4  C   UNL     1       2.966   0.405 -22.308  0.00  0.00    +0.129 A 
ATOM      5  C   UNL     1       2.646   1.681 -22.535  0.00  0.00    +0.075 A 
ATOM      6  C   UNL     1       1.376   2.025 -22.749  0.00  0.00    +0.202 C 
ATOM      7  O   UNL     1       0.420   1.092 -22.736  0.00  0.00    -0.286 OA
ATOM      8  C   UNL     1       1.057   3.301 -22.977  0.00  0.00    +0.075 A 
ATOM      9  C   UNL     1      -0.215   3.646 -23.191  0.00  0.00    +0.128 A 
ATOM     10  C   UNL     1      -0.531   4.920 -23.418  0.00  0.00    +0.046 A 
ATOM     11  C   UNL     1       0.422   5.855 -23.431  0.00  0.00    +0.004 A 
ATOM     12  C   UNL     1       1.692   5.509 -23.217  0.00  0.00    +0.012 A 
ATOM     13  C   UNL     1       2.009   4.232 -22.990  0.00  0.00    +0.037 A 
ATOM     14  C   UNL     1       3.277   3.888 -22.776  0.00  0.00    +0.195 C 
ATOM     15  O   UNL     1       3.802   4.408 -22.784  0.00  0.00    -0.287 OA
ATOM     16  C   UNL     1       6.462   0.652 -21.893  0.00  0.00    +0.044 C 
ATOM     17  C   UNL     1       3.601   2.612 -22.548  0.00  0.00    +0.045 A 
ENDROOT
BRANCH   1  21
ATOM     18  C   UNL     1       7.720   5.082 -22.421  0.00  0.00    +0.138 A 
ATOM     19  C   UNL     1       7.337   4.477 -23.547  0.00  0.00    +0.092 A 
ATOM     20  C   UNL     1       6.387   3.541 -23.508  0.00  0.00    +0.132 A 
ATOM     21  C   UNL     1       5.820   3.210 -22.349  0.00  0.00    +0.067 A 
ATOM     22  C   UNL     1       6.208   3.821 -21.226  0.00  0.00    +0.142 A 
ATOM     23  C   UNL     1       7.156   4.756 -21.261  0.00  0.00    +0.101 A 
BRANCH  23  24
ATOM     24  C   UNL     1       7.529   5.353 -20.129  0.00  0.00    +0.167 C 
ATOM     25  O   UNL     1       8.514   4.828 -19.392  0.00  0.00    -0.292 OA
ATOM     26  C   UNL     1       6.923   6.470 -19.731  0.00  0.00    +0.092 C 
ENDBRANCH  23  24
BRANCH  22  27
ATOM     27  O   UNL     1       5.894   3.638 -20.580  0.00  0.00    -0.505 OA
ATOM     28  H   UNL     1       5.136   3.087 -20.568  0.00  0.00    +0.292 HD
ENDBRANCH  22  27
BRANCH  18  30
ATOM     29  C   UNL     1       8.790   6.823 -23.503  0.00  0.00    +0.277 C 
ATOM     30  O   UNL     1       8.670   6.021 -22.448  0.00  0.00    -0.494 OA
ENDBRANCH  18  30
BRANCH  20  31
ATOM     31  O   UNL     1       6.007   2.936 -24.637  0.00  0.00    -0.506 OA
ATOM     32  H   UNL     1       5.978   2.001 -24.680  0.00  0.00    +0.292 HD
ENDBRANCH  20  31
ENDBRANCH   1  21
BRANCH   4  33
ATOM     33  O   UNL     1       2.010  -0.528 -22.295  0.00  0.00    -0.506 OA
ATOM     34  H   UNL     1       1.414  -0.577 -21.574  0.00  0.00    +0.292 HD
ENDBRANCH   4  33
BRANCH   9  35
ATOM     35  O   UNL     1      -1.169   2.713 -23.178  0.00  0.00    -0.506 OA
ATOM     36  H   UNL     1      -1.269   2.133 -23.907  0.00  0.00    +0.292 HD
ENDBRANCH   9  35
TORSDOF 7
ENDMDL
MODEL 6
REMARK VINA RESULT:    -6.405      2.930      8.209
REMARK INTER + INTRA:          -7.666
REMARK INTER:                  -8.700
REMARK INTRA:                   1.035
REMARK UNBOUND:                 0.612
REMARK  Name = ZINC000004098683
REMARK  10 active torsions:
REMARK  status: ('A' for Active; 'I' for Inactive)
REMARK    1  A    between atoms: C_1  and  O_2
REMARK    2  A    between atoms: O_2  and  C_3
REMARK    3  A    between atoms: C_5  and  O_6
REMARK    4  A    between atoms: C_7  and  C_8
REMARK    5  A    between atoms: C_9  and  C_10
REMARK    6  A    between atoms: C_12  and  O_13
REMARK    7  A    between atoms: C_22  and  O_23
REMARK    8  A    between atoms: C_27  and  O_28
REMARK    9  A    between atoms: C_29  and  C_30
REMARK   10  A    between atoms: C_30  and  C_31
REMARK                            x       y       z     vdW  Elec       q    Type
REMARK                         _______ _______ _______ _____ _____    ______ ____
ROOT
ATOM      1  C   UNL     1       5.077   3.334 -22.693  0.00  0.00    +0.004 A 
ATOM      2  C   UNL     1       6.037   2.411 -22.770  0.00  0.00    -0.038 A 
ATOM      3  C   UNL     1       7.318   2.773 -22.659  0.00  0.00    +0.050 A 
ATOM      4  C   UNL     1       7.635   4.053 -22.471  0.00  0.00    +0.129 A 
ATOM      5  C   UNL     1       6.674   4.977 -22.394  0.00  0.00    +0.075 A 
ATOM      6  C   UNL     1       6.991   6.259 -22.206  0.00  0.00    +0.202 C 
ATOM      7  O   UNL     1       8.272   6.620 -22.094  0.00  0.00    -0.286 OA
ATOM      8  C   UNL     1       6.030   7.181 -22.129  0.00  0.00    +0.075 A 
ATOM      9  C   UNL     1       6.346   8.465 -21.941  0.00  0.00    +0.128 A 
ATOM     10  C   UNL     1       5.385   9.384 -21.864  0.00  0.00    +0.046 A 
ATOM     11  C   UNL     1       4.104   9.025 -21.976  0.00  0.00    +0.004 A 
ATOM     12  C   UNL     1       3.789   7.743 -22.164  0.00  0.00    +0.012 A 
ATOM     13  C   UNL     1       4.752   6.822 -22.240  0.00  0.00    +0.037 A 
ATOM     14  C   UNL     1       4.437   5.542 -22.428  0.00  0.00    +0.195 C 
ATOM     15  O   UNL     1       3.727   5.347 -22.489  0.00  0.00    -0.287 OA
ATOM     16  C   UNL     1       5.720   1.130 -22.958  0.00  0.00    +0.044 C 
ATOM     17  C   UNL     1       5.395   4.615 -22.505  0.00  0.00    +0.045 A 
ENDROOT
BRANCH   1  21
ATOM     18  C   UNL     1       1.230   2.266 -22.983  0.00  0.00    +0.138 A 
ATOM     19  C   UNL     1       1.878   2.142 -21.823  0.00  0.00    +0.092 A 
ATOM     20  C   UNL     1       3.159   2.501 -21.735  0.00  0.00    +0.132 A 
ATOM     21  C   UNL     1       3.794   2.982 -22.804  0.00  0.00    +0.067 A 
ATOM     22  C   UNL     1       3.139   3.102 -23.962  0.00  0.00    +0.142 A 
ATOM     23  C   UNL     1       1.859   2.745 -24.053  0.00  0.00    +0.101 A 
BRANCH  23  24
ATOM     24  C   UNL     1       1.224   2.873 -25.218  0.00  0.00    +0.167 C 
ATOM     25  O   UNL     1       1.611   2.146 -26.271  0.00  0.00    -0.292 OA
ATOM     26  C   UNL     1       0.207   3.723 -25.334  0.00  0.00    +0.092 C 
ENDBRANCH  23  24
BRANCH  22  27
ATOM     27  O   UNL     1       3.491   3.369 -24.557  0.00  0.00    -0.505 OA
ATOM     28  H   UNL     1       3.037   3.447 -25.373  0.00  0.00    +0.292 HD
ENDBRANCH  22  27
BRANCH  18  30
ATOM     29  C   UNL     1      -0.882   2.100 -22.058  0.00  0.00    +0.277 C 
ATOM     30  O   UNL     1      -0.054   1.909 -23.081  0.00  0.00    -0.494 OA
ENDBRANCH  18  30
BRANCH  20  31
ATOM     31  O   UNL     1       3.804   2.376 -20.572  0.00  0.00    -0.506 OA
ATOM     32  H   UNL     1       3.485   1.783 -19.922  0.00  0.00    +0.292 HD
ENDBRANCH  20  31
ENDBRANCH   1  21
BRANCH   4  33
ATOM     33  O   UNL     1       8.916   4.416 -22.359  0.00  0.00    -0.506 OA
ATOM     34  H   UNL     1       9.559   3.788 -22.092  0.00  0.00    +0.292 HD
ENDBRANCH   4  33
BRANCH   9  35
ATOM     35  O   UNL     1       7.626   8.826 -21.829  0.00  0.00    -0.506 OA
ATOM     36  H   UNL     1       7.907   9.663 -22.141  0.00  0.00    +0.292 HD
ENDBRANCH   9  35
TORSDOF 7
ENDMDL
MODEL 7
REMARK VINA RESULT:    -6.392      3.071      6.150
REMARK INTER + INTRA:          -7.649
REMARK INTER:                  -8.501
REMARK INTRA:                   0.852
REMARK UNBOUND:                 0.612
REMARK  Name = ZINC000004098683
REMARK  10 active torsions:
REMARK  status: ('A' for Active; 'I' for Inactive)
REMARK    1  A    between atoms: C_1  and  O_2
REMARK    2  A    between atoms: O_2  and  C_3
REMARK    3  A    between atoms: C_5  and  O_6
REMARK    4  A    between atoms: C_7  and  C_8
REMARK    5  A    between atoms: C_9  and  C_10
REMARK    6  A    between atoms: C_12  and  O_13
REMARK    7  A    between atoms: C_22  and  O_23
REMARK    8  A    between atoms: C_27  and  O_28
REMARK    9  A    between atoms: C_29  and  C_30
REMARK   10  A    between atoms: C_30  and  C_31
REMARK                            x       y       z     vdW  Elec       q    Type
REMARK                         _______ _______ _______ _____ _____    ______ ____
ROOT
ATOM      1  C   UNL     1       4.971   2.145 -22.396  0.00  0.00    +0.004 A 
ATOM      2  C   UNL     1       5.217   0.855 -22.157  0.00  0.00    -0.038 A 
ATOM      3  C   UNL     1       4.211  -0.022 -22.142  0.00  0.00    +0.050 A 
ATOM      4  C   UNL     1       2.963   0.390 -22.363  0.00  0.00    +0.129 A 
ATOM      5  C   UNL     1       2.717   1.680 -22.601  0.00  0.00    +0.075 A 
ATOM      6  C   UNL     1       1.468   2.094 -22.823  0.00  0.00    +0.202 C 
ATOM      7  O   UNL     1       0.462   1.216 -22.807  0.00  0.00    -0.286 OA
ATOM      8  C   UNL     1       1.223   3.384 -23.061  0.00  0.00    +0.075 A 
ATOM      9  C   UNL     1      -0.027   3.799 -23.283  0.00  0.00    +0.128 A 
ATOM     10  C   UNL     1      -0.269   5.086 -23.520  0.00  0.00    +0.046 A 
ATOM     11  C   UNL     1       0.735   5.966 -23.537  0.00  0.00    +0.004 A 
ATOM     12  C   UNL     1       1.983   5.551 -23.315  0.00  0.00    +0.012 A 
ATOM     13  C   UNL     1       2.226   4.260 -23.077  0.00  0.00    +0.037 A 
ATOM     14  C   UNL     1       3.472   3.847 -22.856  0.00  0.00    +0.195 C 
ATOM     15  O   UNL     1       4.026   4.336 -22.866  0.00  0.00    -0.287 OA
ATOM     16  C   UNL     1       6.466   0.442 -21.936  0.00  0.00    +0.044 C 
ATOM     17  C   UNL     1       3.723   2.556 -22.617  0.00  0.00    +0.045 A 
ENDROOT
BRANCH   1  21
ATOM     18  C   UNL     1       7.966   4.801 -22.407  0.00  0.00    +0.138 A 
ATOM     19  C   UNL     1       7.356   4.479 -21.265  0.00  0.00    +0.092 A 
ATOM     20  C   UNL     1       6.358   3.593 -21.271  0.00  0.00    +0.132 A 
ATOM     21  C   UNL     1       5.971   3.029 -22.414  0.00  0.00    +0.067 A 
ATOM     22  C   UNL     1       6.587   3.356 -23.553  0.00  0.00    +0.142 A 
ATOM     23  C   UNL     1       7.583   4.240 -23.551  0.00  0.00    +0.101 A 
BRANCH  23  24
ATOM     24  C   UNL     1       8.184   4.553 -24.699  0.00  0.00    +0.167 C 
ATOM     25  O   UNL     1       8.835   3.609 -25.388  0.00  0.00    -0.292 OA
ATOM     26  C   UNL     1       8.138   5.801 -25.160  0.00  0.00    +0.092 C 
ENDBRANCH  23  24
BRANCH  22  27
ATOM     27  O   UNL     1       6.372   3.043 -24.190  0.00  0.00    -0.505 OA
ATOM     28  H   UNL     1       6.557   2.139 -24.353  0.00  0.00    +0.292 HD
ENDBRANCH  22  27
BRANCH  18  30
ATOM     29  C   UNL     1       8.999   6.666 -21.512  0.00  0.00    +0.277 C 
ATOM     30  O   UNL     1       8.966   5.687 -22.412  0.00  0.00    -0.494 OA
ENDBRANCH  18  30
BRANCH  20  31
ATOM     31  O   UNL     1       5.750   3.274 -20.125  0.00  0.00    -0.506 OA
ATOM     32  H   UNL     1       6.255   3.142 -19.348  0.00  0.00    +0.292 HD
ENDBRANCH  20  31
ENDBRANCH   1  21
BRANCH   4  33
ATOM     33  O   UNL     1       1.956  -0.487 -22.347  0.00  0.00    -0.506 OA
ATOM     34  H   UNL     1       1.079  -0.190 -22.203  0.00  0.00    +0.292 HD
ENDBRANCH   4  33
BRANCH   9  35
ATOM     35  O   UNL     1      -1.032   2.921 -23.267  0.00  0.00    -0.506 OA
ATOM     36  H   UNL     1      -1.901   3.206 -23.063  0.00  0.00    +0.292 HD
ENDBRANCH   9  35
TORSDOF 7
ENDMDL
