MODEL 1
REMARK VINA RESULT:    -9.067      0.000      0.000
REMARK INTER + INTRA:         -10.843
REMARK INTER:                 -10.631
REMARK INTRA:                  -0.212
REMARK UNBOUND:                -0.186
REMARK  Name = ZINC000018847037
REMARK  5 active torsions:
REMARK  status: ('A' for Active; 'I' for Inactive)
REMARK    1  A    between atoms: C_1  and  O_2
REMARK    2  A    between atoms: O_2  and  C_3
REMARK    3  A    between atoms: C_6  and  C_7
REMARK    4  A    between atoms: C_12  and  O_13
REMARK    5  A    between atoms: C_15  and  O_16
REMARK                            x       y       z     vdW  Elec       q    Type
REMARK                         _______ _______ _______ _____ _____    ______ ____
ROOT
ATOM      1  C   UNL     1      -0.146   3.731 -23.224  0.00  0.00    +0.064 A 
ATOM      2  C   UNL     1       0.444   4.877 -23.388  0.00  0.00    +0.208 A 
ATOM      3  O   UNL     1       1.738   4.932 -23.503  0.00  0.00    -0.462 OA
ATOM      4  C   UNL     1       2.441   3.839 -23.455  0.00  0.00    +0.145 A 
ATOM      5  C   UNL     1       3.735   3.893 -23.571  0.00  0.00    +0.092 A 
ATOM      6  C   UNL     1       4.438   2.801 -23.523  0.00  0.00    +0.124 A 
ATOM      7  C   UNL     1       3.847   1.655 -23.359  0.00  0.00    +0.091 A 
ATOM      8  C   UNL     1       2.554   1.600 -23.243  0.00  0.00    +0.135 A 
ATOM      9  C   UNL     1       1.851   2.692 -23.291  0.00  0.00    +0.106 A 
ATOM     10  C   UNL     1       0.557   2.639 -23.175  0.00  0.00    +0.204 A 
ATOM     11  O   UNL     1      -0.033   1.492 -23.011  0.00  0.00    -0.286 OA
ENDROOT
BRANCH   1  15
ATOM     12  C   UNL     1      -4.027   3.565 -22.878  0.00  0.00    +0.120 A 
ATOM     13  C   UNL     1      -3.280   3.553 -21.815  0.00  0.00    +0.046 A 
ATOM     14  C   UNL     1      -1.985   3.608 -21.930  0.00  0.00    +0.012 A 
ATOM     15  C   UNL     1      -1.440   3.676 -23.108  0.00  0.00    -0.011 A 
ATOM     16  C   UNL     1      -2.189   3.688 -24.171  0.00  0.00    +0.012 A 
ATOM     17  C   UNL     1      -3.482   3.633 -24.056  0.00  0.00    +0.046 A 
BRANCH  12  19
ATOM     18  C   UNL     1      -5.859   2.860 -21.773  0.00  0.00    +0.277 C 
ATOM     19  O   UNL     1      -5.321   3.510 -22.763  0.00  0.00    -0.495 OA
ENDBRANCH  12  19
ENDBRANCH   1  15
BRANCH   8  20
ATOM     20  O   UNL     1       1.964   0.454 -23.079  0.00  0.00    -0.506 OA
ATOM     21  H   UNL     1       1.389   0.124 -23.741  0.00  0.00    +0.292 HD
ENDBRANCH   8  20
BRANCH   6  22
ATOM     22  O   UNL     1       5.732   2.855 -23.639  0.00  0.00    -0.507 OA
ATOM     23  H   UNL     1       6.202   2.122 -23.984  0.00  0.00    +0.292 HD
ENDBRANCH   6  22
TORSDOF 4
ENDMDL
MODEL 2
REMARK VINA RESULT:    -8.988      0.943      2.381
REMARK INTER + INTRA:         -10.749
REMARK INTER:                 -10.560
REMARK INTRA:                  -0.189
REMARK UNBOUND:                -0.186
REMARK  Name = ZINC000018847037
REMARK  5 active torsions:
REMARK  status: ('A' for Active; 'I' for Inactive)
REMARK    1  A    between atoms: C_1  and  O_2
REMARK    2  A    between atoms: O_2  and  C_3
REMARK    3  A    between atoms: C_6  and  C_7
REMARK    4  A    between atoms: C_12  and  O_13
REMARK    5  A    between atoms: C_15  and  O_16
REMARK                            x       y       z     vdW  Elec       q    Type
REMARK                         _______ _______ _______ _____ _____    ______ ____
ROOT
ATOM      1  C   UNL     1      -0.513   2.681 -22.570  0.00  0.00    +0.064 A 
ATOM      2  C   UNL     1      -0.042   1.475 -22.457  0.00  0.00    +0.208 A 
ATOM      3  O   UNL     1       1.222   1.250 -22.659  0.00  0.00    -0.462 OA
ATOM      4  C   UNL     1       2.016   2.231 -22.973  0.00  0.00    +0.145 A 
ATOM      5  C   UNL     1       3.280   2.006 -23.175  0.00  0.00    +0.092 A 
ATOM      6  C   UNL     1       4.072   2.987 -23.489  0.00  0.00    +0.124 A 
ATOM      7  C   UNL     1       3.601   4.194 -23.601  0.00  0.00    +0.091 A 
ATOM      8  C   UNL     1       2.337   4.419 -23.400  0.00  0.00    +0.135 A 
ATOM      9  C   UNL     1       1.544   3.438 -23.086  0.00  0.00    +0.106 A 
ATOM     10  C   UNL     1       0.279   3.662 -22.884  0.00  0.00    +0.204 A 
ATOM     11  O   UNL     1      -0.192   4.869 -22.996  0.00  0.00    -0.286 OA
ENDROOT
BRANCH   1  15
ATOM     12  C   UNL     1      -4.306   3.359 -21.962  0.00  0.00    +0.120 A 
ATOM     13  C   UNL     1      -3.849   3.268 -23.175  0.00  0.00    +0.046 A 
ATOM     14  C   UNL     1      -2.584   3.041 -23.378  0.00  0.00    +0.012 A 
ATOM     15  C   UNL     1      -1.778   2.907 -22.368  0.00  0.00    -0.011 A 
ATOM     16  C   UNL     1      -2.236   2.999 -21.154  0.00  0.00    +0.012 A 
ATOM     17  C   UNL     1      -3.499   3.225 -20.951  0.00  0.00    +0.046 A 
BRANCH  12  19
ATOM     18  C   UNL     1      -6.411   2.594 -21.731  0.00  0.00    +0.277 C 
ATOM     19  O   UNL     1      -5.570   3.585 -21.760  0.00  0.00    -0.495 OA
ENDBRANCH  12  19
ENDBRANCH   1  15
BRANCH   8  20
ATOM     20  O   UNL     1       1.865   5.625 -23.512  0.00  0.00    -0.506 OA
ATOM     21  H   UNL     1       1.457   6.039 -22.777  0.00  0.00    +0.292 HD
ENDBRANCH   8  20
BRANCH   6  22
ATOM     22  O   UNL     1       5.337   2.763 -23.691  0.00  0.00    -0.507 OA
ATOM     23  H   UNL     1       5.789   2.130 -23.169  0.00  0.00    +0.292 HD
ENDBRANCH   6  22
TORSDOF 4
ENDMDL
MODEL 3
REMARK VINA RESULT:    -8.919      1.810      2.250
REMARK INTER + INTRA:         -10.669
REMARK INTER:                 -11.015
REMARK INTRA:                   0.346
REMARK UNBOUND:                -0.186
REMARK  Name = ZINC000018847037
REMARK  5 active torsions:
REMARK  status: ('A' for Active; 'I' for Inactive)
REMARK    1  A    between atoms: C_1  and  O_2
REMARK    2  A    between atoms: O_2  and  C_3
REMARK    3  A    between atoms: C_6  and  C_7
REMARK    4  A    between atoms: C_12  and  O_13
REMARK    5  A    between atoms: C_15  and  O_16
REMARK                            x       y       z     vdW  Elec       q    Type
REMARK                         _______ _______ _______ _____ _____    ______ ____
ROOT
ATOM      1  C   UNL     1       0.486   2.278 -22.499  0.00  0.00    +0.064 A 
ATOM      2  C   UNL     1       1.010   2.440 -23.678  0.00  0.00    +0.208 A 
ATOM      3  O   UNL     1       2.249   2.111 -23.889  0.00  0.00    -0.462 OA
ATOM      4  C   UNL     1       2.966   1.620 -22.921  0.00  0.00    +0.145 A 
ATOM      5  C   UNL     1       4.205   1.291 -23.132  0.00  0.00    +0.092 A 
ATOM      6  C   UNL     1       4.921   0.800 -22.164  0.00  0.00    +0.124 A 
ATOM      7  C   UNL     1       4.397   0.639 -20.985  0.00  0.00    +0.091 A 
ATOM      8  C   UNL     1       3.158   0.968 -20.774  0.00  0.00    +0.135 A 
ATOM      9  C   UNL     1       2.442   1.458 -21.742  0.00  0.00    +0.106 A 
ATOM     10  C   UNL     1       1.202   1.788 -21.532  0.00  0.00    +0.204 A 
ATOM     11  O   UNL     1       0.678   1.626 -20.353  0.00  0.00    -0.286 OA
ENDROOT
BRANCH   1  15
ATOM     12  C   UNL     1      -3.233   3.266 -21.865  0.00  0.00    +0.120 A 
ATOM     13  C   UNL     1      -2.783   2.125 -21.438  0.00  0.00    +0.046 A 
ATOM     14  C   UNL     1      -1.543   1.795 -21.649  0.00  0.00    +0.012 A 
ATOM     15  C   UNL     1      -0.754   2.607 -22.288  0.00  0.00    -0.011 A 
ATOM     16  C   UNL     1      -1.205   3.749 -22.715  0.00  0.00    +0.012 A 
ATOM     17  C   UNL     1      -2.445   4.079 -22.504  0.00  0.00    +0.046 A 
BRANCH  12  19
ATOM     18  C   UNL     1      -5.350   3.473 -22.606  0.00  0.00    +0.277 C 
ATOM     19  O   UNL     1      -4.473   3.596 -21.654  0.00  0.00    -0.495 OA
ENDBRANCH  12  19
ENDBRANCH   1  15
BRANCH   8  20
ATOM     20  O   UNL     1       2.634   0.806 -19.596  0.00  0.00    -0.506 OA
ATOM     21  H   UNL     1       3.101   1.085 -18.833  0.00  0.00    +0.292 HD
ENDBRANCH   8  20
BRANCH   6  22
ATOM     22  O   UNL     1       6.161   0.471 -22.375  0.00  0.00    -0.507 OA
ATOM     23  H   UNL     1       6.822   0.718 -21.758  0.00  0.00    +0.292 HD
ENDBRANCH   6  22
TORSDOF 4
ENDMDL
MODEL 4
REMARK VINA RESULT:    -8.668      1.896      2.796
REMARK INTER + INTRA:         -10.373
REMARK INTER:                 -10.157
REMARK INTRA:                  -0.216
REMARK UNBOUND:                -0.186
REMARK  Name = ZINC000018847037
REMARK  5 active torsions:
REMARK  status: ('A' for Active; 'I' for Inactive)
REMARK    1  A    between atoms: C_1  and  O_2
REMARK    2  A    between atoms: O_2  and  C_3
REMARK    3  A    between atoms: C_6  and  C_7
REMARK    4  A    between atoms: C_12  and  O_13
REMARK    5  A    between atoms: C_15  and  O_16
REMARK                            x       y       z     vdW  Elec       q    Type
REMARK                         _______ _______ _______ _____ _____    ______ ____
ROOT
ATOM      1  C   UNL     1       0.425   2.378 -22.524  0.00  0.00    +0.064 A 
ATOM      2  C   UNL     1       0.260   1.845 -21.350  0.00  0.00    +0.208 A 
ATOM      3  O   UNL     1       1.260   1.267 -20.752  0.00  0.00    -0.462 OA
ATOM      4  C   UNL     1       2.425   1.223 -21.329  0.00  0.00    +0.145 A 
ATOM      5  C   UNL     1       3.424   0.645 -20.731  0.00  0.00    +0.092 A 
ATOM      6  C   UNL     1       4.588   0.601 -21.308  0.00  0.00    +0.124 A 
ATOM      7  C   UNL     1       4.753   1.134 -22.482  0.00  0.00    +0.091 A 
ATOM      8  C   UNL     1       3.754   1.712 -23.079  0.00  0.00    +0.135 A 
ATOM      9  C   UNL     1       2.589   1.756 -22.503  0.00  0.00    +0.106 A 
ATOM     10  C   UNL     1       1.589   2.334 -23.100  0.00  0.00    +0.204 A 
ATOM     11  O   UNL     1       1.754   2.867 -24.274  0.00  0.00    -0.286 OA
ENDROOT
BRANCH   1  15
ATOM     12  C   UNL     1      -2.571   4.114 -24.318  0.00  0.00    +0.120 A 
ATOM     13  C   UNL     1      -2.425   2.825 -24.398  0.00  0.00    +0.046 A 
ATOM     14  C   UNL     1      -1.426   2.245 -23.800  0.00  0.00    +0.012 A 
ATOM     15  C   UNL     1      -0.574   2.956 -23.122  0.00  0.00    -0.011 A 
ATOM     16  C   UNL     1      -0.721   4.246 -23.042  0.00  0.00    +0.012 A 
ATOM     17  C   UNL     1      -1.720   4.824 -23.640  0.00  0.00    +0.046 A 
BRANCH  12  19
ATOM     18  C   UNL     1      -4.781   4.254 -24.732  0.00  0.00    +0.277 C 
ATOM     19  O   UNL     1      -3.570   4.692 -24.916  0.00  0.00    -0.495 OA
ENDBRANCH  12  19
ENDBRANCH   1  15
BRANCH   8  20
ATOM     20  O   UNL     1       3.918   2.245 -24.254  0.00  0.00    -0.506 OA
ATOM     21  H   UNL     1       4.675   2.032 -24.763  0.00  0.00    +0.292 HD
ENDBRANCH   8  20
BRANCH   6  22
ATOM     22  O   UNL     1       5.588   0.023 -20.710  0.00  0.00    -0.507 OA
ATOM     23  H   UNL     1       5.485  -0.307 -19.840  0.00  0.00    +0.292 HD
ENDBRANCH   6  22
TORSDOF 4
ENDMDL
MODEL 5
REMARK VINA RESULT:    -8.574      1.537      6.840
REMARK INTER + INTRA:         -10.263
REMARK INTER:                 -10.211
REMARK INTRA:                  -0.052
REMARK UNBOUND:                -0.186
REMARK  Name = ZINC000018847037
REMARK  5 active torsions:
REMARK  status: ('A' for Active; 'I' for Inactive)
REMARK    1  A    between atoms: C_1  and  O_2
REMARK    2  A    between atoms: O_2  and  C_3
REMARK    3  A    between atoms: C_6  and  C_7
REMARK    4  A    between atoms: C_12  and  O_13
REMARK    5  A    between atoms: C_15  and  O_16
REMARK                            x       y       z     vdW  Elec       q    Type
REMARK                         _______ _______ _______ _____ _____    ______ ____
ROOT
ATOM      1  C   UNL     1      -0.504   2.843 -22.713  0.00  0.00    +0.064 A 
ATOM      2  C   UNL     1      -0.888   2.423 -21.544  0.00  0.00    +0.208 A 
ATOM      3  O   UNL     1      -2.146   2.463 -21.220  0.00  0.00    -0.462 OA
ATOM      4  C   UNL     1      -3.021   2.923 -22.065  0.00  0.00    +0.145 A 
ATOM      5  C   UNL     1      -4.279   2.963 -21.741  0.00  0.00    +0.092 A 
ATOM      6  C   UNL     1      -5.153   3.423 -22.586  0.00  0.00    +0.124 A 
ATOM      7  C   UNL     1      -4.769   3.842 -23.756  0.00  0.00    +0.091 A 
ATOM      8  C   UNL     1      -3.511   3.802 -24.079  0.00  0.00    +0.135 A 
ATOM      9  C   UNL     1      -2.637   3.342 -23.234  0.00  0.00    +0.106 A 
ATOM     10  C   UNL     1      -1.378   3.302 -23.558  0.00  0.00    +0.204 A 
ATOM     11  O   UNL     1      -0.994   3.722 -24.727  0.00  0.00    -0.286 OA
ENDROOT
BRANCH   1  15
ATOM     12  C   UNL     1       3.271   2.721 -23.687  0.00  0.00    +0.120 A 
ATOM     13  C   UNL     1       2.677   3.867 -23.530  0.00  0.00    +0.046 A 
ATOM     14  C   UNL     1       1.418   3.908 -23.205  0.00  0.00    +0.012 A 
ATOM     15  C   UNL     1       0.754   2.803 -23.038  0.00  0.00    -0.011 A 
ATOM     16  C   UNL     1       1.349   1.657 -23.195  0.00  0.00    +0.012 A 
ATOM     17  C   UNL     1       2.607   1.616 -23.519  0.00  0.00    +0.046 A 
BRANCH  12  19
ATOM     18  C   UNL     1       5.394   3.393 -23.352  0.00  0.00    +0.277 C 
ATOM     19  O   UNL     1       4.528   2.681 -24.012  0.00  0.00    -0.495 OA
ENDBRANCH  12  19
ENDBRANCH   1  15
BRANCH   8  20
ATOM     20  O   UNL     1      -3.127   4.221 -25.249  0.00  0.00    -0.506 OA
ATOM     21  H   UNL     1      -3.662   4.822 -25.729  0.00  0.00    +0.292 HD
ENDBRANCH   8  20
BRANCH   6  22
ATOM     22  O   UNL     1      -6.412   3.463 -22.263  0.00  0.00    -0.507 OA
ATOM     23  H   UNL     1      -6.669   3.345 -21.369  0.00  0.00    +0.292 HD
ENDBRANCH   6  22
TORSDOF 4
ENDMDL
MODEL 6
REMARK VINA RESULT:    -8.506      1.181      2.240
REMARK INTER + INTRA:         -10.184
REMARK INTER:                 -10.012
REMARK INTRA:                  -0.172
REMARK UNBOUND:                -0.186
REMARK  Name = ZINC000018847037
REMARK  5 active torsions:
REMARK  status: ('A' for Active; 'I' for Inactive)
REMARK    1  A    between atoms: C_1  and  O_2
REMARK    2  A    between atoms: O_2  and  C_3
REMARK    3  A    between atoms: C_6  and  C_7
REMARK    4  A    between atoms: C_12  and  O_13
REMARK    5  A    between atoms: C_15  and  O_16
REMARK                            x       y       z     vdW  Elec       q    Type
REMARK                         _______ _______ _______ _____ _____    ______ ____
ROOT
ATOM      1  C   UNL     1       0.335   2.279 -22.545  0.00  0.00    +0.064 A 
ATOM      2  C   UNL     1       0.655   1.107 -22.081  0.00  0.00    +0.208 A 
ATOM      3  O   UNL     1       1.906   0.781 -21.946  0.00  0.00    -0.462 OA
ATOM      4  C   UNL     1       2.837   1.628 -22.274  0.00  0.00    +0.145 A 
ATOM      5  C   UNL     1       4.088   1.302 -22.139  0.00  0.00    +0.092 A 
ATOM      6  C   UNL     1       5.019   2.148 -22.467  0.00  0.00    +0.124 A 
ATOM      7  C   UNL     1       4.699   3.319 -22.931  0.00  0.00    +0.091 A 
ATOM      8  C   UNL     1       3.448   3.645 -23.066  0.00  0.00    +0.135 A 
ATOM      9  C   UNL     1       2.517   2.799 -22.738  0.00  0.00    +0.106 A 
ATOM     10  C   UNL     1       1.265   3.124 -22.873  0.00  0.00    +0.204 A 
ATOM     11  O   UNL     1       0.945   4.296 -23.337  0.00  0.00    -0.286 OA
ENDROOT
BRANCH   1  15
ATOM     12  C   UNL     1      -3.418   3.258 -22.954  0.00  0.00    +0.120 A 
ATOM     13  C   UNL     1      -2.868   3.272 -21.777  0.00  0.00    +0.046 A 
ATOM     14  C   UNL     1      -1.617   2.945 -21.640  0.00  0.00    +0.012 A 
ATOM     15  C   UNL     1      -0.916   2.605 -22.681  0.00  0.00    -0.011 A 
ATOM     16  C   UNL     1      -1.467   2.591 -23.859  0.00  0.00    +0.012 A 
ATOM     17  C   UNL     1      -2.718   2.918 -23.995  0.00  0.00    +0.046 A 
BRANCH  12  19
ATOM     18  C   UNL     1      -5.525   3.283 -22.159  0.00  0.00    +0.277 C 
ATOM     19  O   UNL     1      -4.669   3.584 -23.091  0.00  0.00    -0.495 OA
ENDBRANCH  12  19
ENDBRANCH   1  15
BRANCH   8  20
ATOM     20  O   UNL     1       3.128   4.817 -23.530  0.00  0.00    -0.506 OA
ATOM     21  H   UNL     1       3.436   5.087 -24.372  0.00  0.00    +0.292 HD
ENDBRANCH   8  20
BRANCH   6  22
ATOM     22  O   UNL     1       6.271   1.822 -22.332  0.00  0.00    -0.507 OA
ATOM     23  H   UNL     1       6.560   0.965 -22.575  0.00  0.00    +0.292 HD
ENDBRANCH   6  22
TORSDOF 4
ENDMDL
MODEL 7
REMARK VINA RESULT:    -8.484      1.465      6.639
REMARK INTER + INTRA:         -10.158
REMARK INTER:                  -9.945
REMARK INTRA:                  -0.213
REMARK UNBOUND:                -0.186
REMARK  Name = ZINC000018847037
REMARK  5 active torsions:
REMARK  status: ('A' for Active; 'I' for Inactive)
REMARK    1  A    between atoms: C_1  and  O_2
REMARK    2  A    between atoms: O_2  and  C_3
REMARK    3  A    between atoms: C_6  and  C_7
REMARK    4  A    between atoms: C_12  and  O_13
REMARK    5  A    between atoms: C_15  and  O_16
REMARK                            x       y       z     vdW  Elec       q    Type
REMARK                         _______ _______ _______ _____ _____    ______ ____
ROOT
ATOM      1  C   UNL     1      -0.046   3.385 -24.061  0.00  0.00    +0.064 A 
ATOM      2  C   UNL     1      -0.604   3.764 -25.173  0.00  0.00    +0.208 A 
ATOM      3  O   UNL     1      -1.894   3.911 -25.235  0.00  0.00    -0.462 OA
ATOM      4  C   UNL     1      -2.626   3.679 -24.185  0.00  0.00    +0.145 A 
ATOM      5  C   UNL     1      -3.916   3.826 -24.247  0.00  0.00    +0.092 A 
ATOM      6  C   UNL     1      -4.648   3.594 -23.198  0.00  0.00    +0.124 A 
ATOM      7  C   UNL     1      -4.089   3.215 -22.087  0.00  0.00    +0.091 A 
ATOM      8  C   UNL     1      -2.800   3.068 -22.025  0.00  0.00    +0.135 A 
ATOM      9  C   UNL     1      -2.068   3.300 -23.074  0.00  0.00    +0.106 A 
ATOM     10  C   UNL     1      -0.777   3.154 -23.012  0.00  0.00    +0.204 A 
ATOM     11  O   UNL     1      -0.219   2.775 -21.901  0.00  0.00    -0.286 OA
ENDROOT
BRANCH   1  15
ATOM     12  C   UNL     1       3.825   2.942 -23.873  0.00  0.00    +0.120 A 
ATOM     13  C   UNL     1       3.275   4.041 -23.447  0.00  0.00    +0.046 A 
ATOM     14  C   UNL     1       1.985   4.189 -23.510  0.00  0.00    +0.012 A 
ATOM     15  C   UNL     1       1.244   3.238 -23.998  0.00  0.00    -0.011 A 
ATOM     16  C   UNL     1       1.795   2.140 -24.424  0.00  0.00    +0.012 A 
ATOM     17  C   UNL     1       3.084   1.992 -24.362  0.00  0.00    +0.046 A 
BRANCH  12  19
ATOM     18  C   UNL     1       5.819   3.554 -23.024  0.00  0.00    +0.277 C 
ATOM     19  O   UNL     1       5.114   2.795 -23.811  0.00  0.00    -0.495 OA
ENDBRANCH  12  19
ENDBRANCH   1  15
BRANCH   8  20
ATOM     20  O   UNL     1      -2.241   2.690 -20.914  0.00  0.00    -0.506 OA
ATOM     21  H   UNL     1      -2.696   2.110 -20.335  0.00  0.00    +0.292 HD
ENDBRANCH   8  20
BRANCH   6  22
ATOM     22  O   UNL     1      -5.938   3.740 -23.260  0.00  0.00    -0.507 OA
ATOM     23  H   UNL     1      -6.489   2.991 -23.372  0.00  0.00    +0.292 HD
ENDBRANCH   6  22
TORSDOF 4
ENDMDL
MODEL 8
REMARK VINA RESULT:    -7.942      1.840      2.638
REMARK INTER + INTRA:          -9.520
REMARK INTER:                  -9.348
REMARK INTRA:                  -0.172
REMARK UNBOUND:                -0.186
REMARK  Name = ZINC000018847037
REMARK  5 active torsions:
REMARK  status: ('A' for Active; 'I' for Inactive)
REMARK    1  A    between atoms: C_1  and  O_2
REMARK    2  A    between atoms: O_2  and  C_3
REMARK    3  A    between atoms: C_6  and  C_7
REMARK    4  A    between atoms: C_12  and  O_13
REMARK    5  A    between atoms: C_15  and  O_16
REMARK                            x       y       z     vdW  Elec       q    Type
REMARK                         _______ _______ _______ _____ _____    ______ ____
ROOT
ATOM      1  C   UNL     1       1.801   4.188 -23.511  0.00  0.00    +0.064 A 
ATOM      2  C   UNL     1       2.250   5.375 -23.231  0.00  0.00    +0.208 A 
ATOM      3  O   UNL     1       3.505   5.543 -22.936  0.00  0.00    -0.462 OA
ATOM      4  C   UNL     1       4.312   4.522 -22.921  0.00  0.00    +0.145 A 
ATOM      5  C   UNL     1       5.566   4.690 -22.627  0.00  0.00    +0.092 A 
ATOM      6  C   UNL     1       6.372   3.670 -22.612  0.00  0.00    +0.124 A 
ATOM      7  C   UNL     1       5.923   2.483 -22.892  0.00  0.00    +0.091 A 
ATOM      8  C   UNL     1       4.668   2.315 -23.187  0.00  0.00    +0.135 A 
ATOM      9  C   UNL     1       3.863   3.335 -23.202  0.00  0.00    +0.106 A 
ATOM     10  C   UNL     1       2.607   3.168 -23.496  0.00  0.00    +0.204 A 
ATOM     11  O   UNL     1       2.158   1.981 -23.777  0.00  0.00    -0.286 OA
ENDROOT
BRANCH   1  15
ATOM     12  C   UNL     1      -1.964   3.683 -24.393  0.00  0.00    +0.120 A 
ATOM     13  C   UNL     1      -1.069   3.675 -25.336  0.00  0.00    +0.046 A 
ATOM     14  C   UNL     1       0.186   3.844 -25.043  0.00  0.00    +0.012 A 
ATOM     15  C   UNL     1       0.546   4.019 -23.806  0.00  0.00    -0.011 A 
ATOM     16  C   UNL     1      -0.349   4.027 -22.863  0.00  0.00    +0.012 A 
ATOM     17  C   UNL     1      -1.604   3.858 -23.157  0.00  0.00    +0.046 A 
BRANCH  12  19
ATOM     18  C   UNL     1      -3.622   3.647 -25.917  0.00  0.00    +0.277 C 
ATOM     19  O   UNL     1      -3.219   3.514 -24.687  0.00  0.00    -0.495 OA
ENDBRANCH  12  19
ENDBRANCH   1  15
BRANCH   8  20
ATOM     20  O   UNL     1       4.219   1.128 -23.467  0.00  0.00    -0.506 OA
ATOM     21  H   UNL     1       4.730   0.547 -23.996  0.00  0.00    +0.292 HD
ENDBRANCH   8  20
BRANCH   6  22
ATOM     22  O   UNL     1       7.627   3.837 -22.317  0.00  0.00    -0.507 OA
ATOM     23  H   UNL     1       8.262   3.917 -23.002  0.00  0.00    +0.292 HD
ENDBRANCH   6  22
TORSDOF 4
ENDMDL
MODEL 9
REMARK VINA RESULT:    -7.940      1.540      3.126
REMARK INTER + INTRA:          -9.519
REMARK INTER:                  -9.333
REMARK INTRA:                  -0.186
REMARK UNBOUND:                -0.186
REMARK  Name = ZINC000018847037
REMARK  5 active torsions:
REMARK  status: ('A' for Active; 'I' for Inactive)
REMARK    1  A    between atoms: C_1  and  O_2
REMARK    2  A    between atoms: O_2  and  C_3
REMARK    3  A    between atoms: C_6  and  C_7
REMARK    4  A    between atoms: C_12  and  O_13
REMARK    5  A    between atoms: C_15  and  O_16
REMARK                            x       y       z     vdW  Elec       q    Type
REMARK                         _______ _______ _______ _____ _____    ______ ____
ROOT
ATOM      1  C   UNL     1       1.625   3.207 -23.658  0.00  0.00    +0.064 A 
ATOM      2  C   UNL     1       2.051   1.979 -23.685  0.00  0.00    +0.208 A 
ATOM      3  O   UNL     1       3.302   1.720 -23.445  0.00  0.00    -0.462 OA
ATOM      4  C   UNL     1       4.127   2.689 -23.178  0.00  0.00    +0.145 A 
ATOM      5  C   UNL     1       5.378   2.430 -22.938  0.00  0.00    +0.092 A 
ATOM      6  C   UNL     1       6.203   3.399 -22.672  0.00  0.00    +0.124 A 
ATOM      7  C   UNL     1       5.776   4.627 -22.645  0.00  0.00    +0.091 A 
ATOM      8  C   UNL     1       4.526   4.886 -22.885  0.00  0.00    +0.135 A 
ATOM      9  C   UNL     1       3.701   3.917 -23.151  0.00  0.00    +0.106 A 
ATOM     10  C   UNL     1       2.449   4.176 -23.392  0.00  0.00    +0.204 A 
ATOM     11  O   UNL     1       2.023   5.404 -23.365  0.00  0.00    -0.286 OA
ENDROOT
BRANCH   1  15
ATOM     12  C   UNL     1      -2.129   3.988 -24.376  0.00  0.00    +0.120 A 
ATOM     13  C   UNL     1      -1.318   3.737 -25.360  0.00  0.00    +0.046 A 
ATOM     14  C   UNL     1      -0.066   3.477 -25.121  0.00  0.00    +0.012 A 
ATOM     15  C   UNL     1       0.374   3.467 -23.898  0.00  0.00    -0.011 A 
ATOM     16  C   UNL     1      -0.438   3.718 -22.913  0.00  0.00    +0.012 A 
ATOM     17  C   UNL     1      -1.689   3.978 -23.152  0.00  0.00    +0.046 A 
BRANCH  12  19
ATOM     18  C   UNL     1      -4.308   3.695 -23.891  0.00  0.00    +0.277 C 
ATOM     19  O   UNL     1      -3.379   4.248 -24.614  0.00  0.00    -0.495 OA
ENDBRANCH  12  19
ENDBRANCH   1  15
BRANCH   8  20
ATOM     20  O   UNL     1       4.100   6.114 -22.858  0.00  0.00    -0.506 OA
ATOM     21  H   UNL     1       3.281   6.334 -23.257  0.00  0.00    +0.292 HD
ENDBRANCH   8  20
BRANCH   6  22
ATOM     22  O   UNL     1       7.454   3.140 -22.432  0.00  0.00    -0.507 OA
ATOM     23  H   UNL     1       7.909   2.507 -22.952  0.00  0.00    +0.292 HD
ENDBRANCH   6  22
TORSDOF 4
ENDMDL
