MODEL 1
REMARK VINA RESULT:   -10.545      0.000      0.000
REMARK INTER + INTRA:         -10.853
REMARK INTER:                 -10.853
REMARK INTRA:                   0.000
REMARK UNBOUND:                 0.000
REMARK  Name = ZINC000016027969
REMARK  3 active torsions:
REMARK  status: ('A' for Active; 'I' for Inactive)
REMARK    1  A    between atoms: C_8  and  C_9
REMARK    2  A    between atoms: C_10  and  O_11
REMARK    3  A    between atoms: C_14  and  C_15
REMARK                            x       y       z     vdW  Elec       q    Type
REMARK                         _______ _______ _______ _____ _____    ______ ____
ROOT
ATOM      1  C   UNL     1       0.662   1.532 -21.208  0.00  0.00    +0.020 C 
ATOM      2  C   UNL     1      -0.068   1.979 -22.188  0.00  0.00    +0.036 C 
ATOM      3  C   UNL     1       0.329   2.163 -23.416  0.00  0.00    +0.336 C 
ATOM      4  O   UNL     1      -0.678   2.618 -24.106  0.00  0.00    -0.453 OA
ATOM      5  C   UNL     1      -1.700   2.716 -23.301  0.00  0.00    +0.207 C 
ATOM      6  C   UNL     1      -2.786   3.068 -23.471  0.00  0.00    +0.019 C 
ATOM      7  C   UNL     1      -3.209   3.469 -24.626  0.00  0.00    -0.045 C 
ATOM      8  C   UNL     1      -4.515   3.880 -24.782  0.00  0.00    +0.144 C 
ATOM      9  C   UNL     1      -5.466   3.898 -23.732  0.00  0.00    +0.063 C 
ATOM     10  C   UNL     1      -5.203   3.513 -22.456  0.00  0.00    -0.025 C 
ATOM     11  C   UNL     1      -4.073   3.141 -22.252  0.00  0.00    -0.076 C 
ATOM     12  C   UNL     1      -3.565   2.722 -21.126  0.00  0.00    +0.031 C 
ATOM     13  C   UNL     1      -2.223   2.320 -21.049  0.00  0.00    +0.016 C 
ATOM     14  C   UNL     1      -3.460   3.170 -23.095  0.00  0.00    +0.039 C 
ATOM     15  C   UNL     1      -2.395   3.485 -25.653  0.00  0.00    +0.041 C 
ATOM     16  O   UNL     1       1.526   1.933 -23.879  0.00  0.00    -0.245 OA
ATOM     17  C   UNL     1      -1.324   2.322 -22.120  0.00  0.00    +0.070 C 
ENDROOT
BRANCH   8  18
ATOM     18  O   UNL     1      -4.898   4.278 -25.971  0.00  0.00    -0.387 OA
ATOM     19  H   UNL     1      -5.860   4.183 -26.049  0.00  0.00    +0.210 HD
ENDBRANCH   8  18
TORSDOF 1
ENDMDL
MODEL 2
REMARK VINA RESULT:   -10.384      1.645      2.758
REMARK INTER + INTRA:         -10.687
REMARK INTER:                 -10.687
REMARK INTRA:                   0.000
REMARK UNBOUND:                 0.000
REMARK  Name = ZINC000016027969
REMARK  3 active torsions:
REMARK  status: ('A' for Active; 'I' for Inactive)
REMARK    1  A    between atoms: C_8  and  C_9
REMARK    2  A    between atoms: C_10  and  O_11
REMARK    3  A    between atoms: C_14  and  C_15
REMARK                            x       y       z     vdW  Elec       q    Type
REMARK                         _______ _______ _______ _____ _____    ______ ____
ROOT
ATOM      1  C   UNL     1       1.483   2.131 -22.921  0.00  0.00    +0.020 C 
ATOM      2  C   UNL     1       0.248   2.236 -22.526  0.00  0.00    +0.036 C 
ATOM      3  C   UNL     1      -0.218   1.865 -21.366  0.00  0.00    +0.336 C 
ATOM      4  O   UNL     1      -1.494   2.127 -21.338  0.00  0.00    -0.453 OA
ATOM      5  C   UNL     1      -1.816   2.662 -22.483  0.00  0.00    +0.207 C 
ATOM      6  C   UNL     1      -2.821   3.047 -22.900  0.00  0.00    +0.019 C 
ATOM      7  C   UNL     1      -3.917   3.003 -22.213  0.00  0.00    -0.045 C 
ATOM      8  C   UNL     1      -5.093   3.474 -22.752  0.00  0.00    +0.144 C 
ATOM      9  C   UNL     1      -5.199   4.026 -24.053  0.00  0.00    +0.063 C 
ATOM     10  C   UNL     1      -4.157   4.153 -24.916  0.00  0.00    -0.025 C 
ATOM     11  C   UNL     1      -3.094   3.757 -24.503  0.00  0.00    -0.076 C 
ATOM     12  C   UNL     1      -1.948   3.763 -25.125  0.00  0.00    +0.031 C 
ATOM     13  C   UNL     1      -0.792   3.264 -24.506  0.00  0.00    +0.016 C 
ATOM     14  C   UNL     1      -3.134   3.372 -23.535  0.00  0.00    +0.039 C 
ATOM     15  C   UNL     1      -3.909   2.508 -20.999  0.00  0.00    +0.041 C 
ATOM     16  O   UNL     1       0.469   1.324 -20.399  0.00  0.00    -0.245 OA
ATOM     17  C   UNL     1      -0.743   2.729 -23.215  0.00  0.00    +0.070 C 
ENDROOT
BRANCH   8  18
ATOM     18  O   UNL     1      -6.177   3.409 -22.017  0.00  0.00    -0.387 OA
ATOM     19  H   UNL     1      -6.170   2.586 -21.503  0.00  0.00    +0.210 HD
ENDBRANCH   8  18
TORSDOF 1
ENDMDL
MODEL 3
REMARK VINA RESULT:    -9.482      1.174      4.588
REMARK INTER + INTRA:          -9.759
REMARK INTER:                  -9.759
REMARK INTRA:                   0.000
REMARK UNBOUND:                 0.000
REMARK  Name = ZINC000016027969
REMARK  3 active torsions:
REMARK  status: ('A' for Active; 'I' for Inactive)
REMARK    1  A    between atoms: C_8  and  C_9
REMARK    2  A    between atoms: C_10  and  O_11
REMARK    3  A    between atoms: C_14  and  C_15
REMARK                            x       y       z     vdW  Elec       q    Type
REMARK                         _______ _______ _______ _____ _____    ______ ____
ROOT
ATOM      1  C   UNL     1      -5.186   3.745 -23.248  0.00  0.00    +0.020 C 
ATOM      2  C   UNL     1      -3.957   3.700 -23.674  0.00  0.00    +0.036 C 
ATOM      3  C   UNL     1      -3.510   4.229 -24.779  0.00  0.00    +0.336 C 
ATOM      4  O   UNL     1      -2.235   3.976 -24.864  0.00  0.00    -0.453 OA
ATOM      5  C   UNL     1      -1.894   3.289 -23.809  0.00  0.00    +0.207 C 
ATOM      6  C   UNL     1      -0.882   2.852 -23.466  0.00  0.00    +0.019 C 
ATOM      7  C   UNL     1       0.202   2.994 -24.158  0.00  0.00    -0.045 C 
ATOM      8  C   UNL     1       1.387   2.455 -23.709  0.00  0.00    +0.144 C 
ATOM      9  C   UNL     1       1.514   1.729 -22.499  0.00  0.00    +0.063 C 
ATOM     10  C   UNL     1       0.487   1.481 -21.645  0.00  0.00    -0.025 C 
ATOM     11  C   UNL     1      -0.583   1.928 -21.982  0.00  0.00    -0.076 C 
ATOM     12  C   UNL     1      -1.719   1.832 -21.348  0.00  0.00    +0.031 C 
ATOM     13  C   UNL     1      -2.885   2.410 -21.873  0.00  0.00    +0.016 C 
ATOM     14  C   UNL     1      -0.559   2.443 -22.888  0.00  0.00    +0.039 C 
ATOM     15  C   UNL     1       0.175   3.652 -25.291  0.00  0.00    +0.041 C 
ATOM     16  O   UNL     1      -4.213   4.897 -25.650  0.00  0.00    -0.245 OA
ATOM     17  C   UNL     1      -2.955   3.118 -23.077  0.00  0.00    +0.070 C 
ENDROOT
BRANCH   8  18
ATOM     18  O   UNL     1       2.459   2.624 -24.445  0.00  0.00    -0.387 OA
ATOM     19  H   UNL     1       2.197   2.788 -25.364  0.00  0.00    +0.210 HD
ENDBRANCH   8  18
TORSDOF 1
ENDMDL
MODEL 4
REMARK VINA RESULT:    -9.238      1.795      4.949
REMARK INTER + INTRA:          -9.508
REMARK INTER:                  -9.508
REMARK INTRA:                   0.000
REMARK UNBOUND:                 0.000
REMARK  Name = ZINC000016027969
REMARK  3 active torsions:
REMARK  status: ('A' for Active; 'I' for Inactive)
REMARK    1  A    between atoms: C_8  and  C_9
REMARK    2  A    between atoms: C_10  and  O_11
REMARK    3  A    between atoms: C_14  and  C_15
REMARK                            x       y       z     vdW  Elec       q    Type
REMARK                         _______ _______ _______ _____ _____    ______ ____
ROOT
ATOM      1  C   UNL     1      -5.412   3.398 -22.539  0.00  0.00    +0.020 C 
ATOM      2  C   UNL     1      -4.180   3.034 -22.331  0.00  0.00    +0.036 C 
ATOM      3  C   UNL     1      -3.726   2.444 -21.261  0.00  0.00    +0.336 C 
ATOM      4  O   UNL     1      -2.450   2.238 -21.420  0.00  0.00    -0.453 OA
ATOM      5  C   UNL     1      -2.114   2.702 -22.592  0.00  0.00    +0.207 C 
ATOM      6  C   UNL     1      -1.103   2.736 -23.149  0.00  0.00    +0.019 C 
ATOM      7  C   UNL     1      -0.015   2.262 -22.634  0.00  0.00    -0.045 C 
ATOM      8  C   UNL     1       1.169   2.325 -23.335  0.00  0.00    +0.144 C 
ATOM      9  C   UNL     1       1.289   2.892 -24.629  0.00  0.00    +0.063 C 
ATOM     10  C   UNL     1       0.256   3.436 -25.324  0.00  0.00    -0.025 C 
ATOM     11  C   UNL     1      -0.812   3.412 -24.762  0.00  0.00    -0.076 C 
ATOM     12  C   UNL     1      -1.953   3.864 -25.206  0.00  0.00    +0.031 C 
ATOM     13  C   UNL     1      -3.116   3.762 -24.428  0.00  0.00    +0.016 C 
ATOM     14  C   UNL     1      -0.784   2.973 -23.817  0.00  0.00    +0.039 C 
ATOM     15  C   UNL     1      -0.036   1.720 -21.440  0.00  0.00    +0.041 C 
ATOM     16  O   UNL     1      -4.425   2.115 -20.210  0.00  0.00    -0.245 OA
ATOM     17  C   UNL     1      -3.180   3.192 -23.153  0.00  0.00    +0.070 C 
ENDROOT
BRANCH   8  18
ATOM     18  O   UNL     1       2.246   1.832 -22.773  0.00  0.00    -0.387 OA
ATOM     19  H   UNL     1       3.023   2.327 -23.075  0.00  0.00    +0.210 HD
ENDBRANCH   8  18
TORSDOF 1
ENDMDL
MODEL 5
REMARK VINA RESULT:    -8.900      2.391      4.105
REMARK INTER + INTRA:          -9.160
REMARK INTER:                  -9.160
REMARK INTRA:                   0.000
REMARK UNBOUND:                 0.000
REMARK  Name = ZINC000016027969
REMARK  3 active torsions:
REMARK  status: ('A' for Active; 'I' for Inactive)
REMARK    1  A    between atoms: C_8  and  C_9
REMARK    2  A    between atoms: C_10  and  O_11
REMARK    3  A    between atoms: C_14  and  C_15
REMARK                            x       y       z     vdW  Elec       q    Type
REMARK                         _______ _______ _______ _____ _____    ______ ____
ROOT
ATOM      1  C   UNL     1       4.596   2.142 -22.692  0.00  0.00    +0.020 C 
ATOM      2  C   UNL     1       3.333   1.983 -22.423  0.00  0.00    +0.036 C 
ATOM      3  C   UNL     1       2.814   1.001 -21.739  0.00  0.00    +0.336 C 
ATOM      4  O   UNL     1       1.526   1.184 -21.680  0.00  0.00    -0.453 OA
ATOM      5  C   UNL     1       1.249   2.281 -22.328  0.00  0.00    +0.207 C 
ATOM      6  C   UNL     1       0.251   2.825 -22.534  0.00  0.00    +0.019 C 
ATOM      7  C   UNL     1      -0.883   2.377 -22.101  0.00  0.00    -0.045 C 
ATOM      8  C   UNL     1      -2.047   3.061 -22.372  0.00  0.00    +0.144 C 
ATOM      9  C   UNL     1      -2.100   4.265 -23.118  0.00  0.00    +0.063 C 
ATOM     10  C   UNL     1      -1.012   4.882 -23.650  0.00  0.00    -0.025 C 
ATOM     11  C   UNL     1       0.043   4.331 -23.448  0.00  0.00    -0.076 C 
ATOM     12  C   UNL     1       1.226   4.712 -23.845  0.00  0.00    +0.031 C 
ATOM     13  C   UNL     1       2.366   3.958 -23.527  0.00  0.00    +0.016 C 
ATOM     14  C   UNL     1      -0.037   3.455 -22.889  0.00  0.00    +0.039 C 
ATOM     15  C   UNL     1      -0.926   1.269 -21.403  0.00  0.00    +0.041 C 
ATOM     16  O   UNL     1       3.467   0.007 -21.205  0.00  0.00    -0.245 OA
ATOM     17  C   UNL     1       2.361   2.773 -22.786  0.00  0.00    +0.070 C 
ENDROOT
BRANCH   8  18
ATOM     18  O   UNL     1      -3.172   2.568 -21.912  0.00  0.00    -0.387 OA
ATOM     19  H   UNL     1      -3.789   2.431 -22.648  0.00  0.00    +0.210 HD
ENDBRANCH   8  18
TORSDOF 1
ENDMDL
MODEL 6
REMARK VINA RESULT:    -8.895      1.600      5.212
REMARK INTER + INTRA:          -9.155
REMARK INTER:                  -9.155
REMARK INTRA:                   0.000
REMARK UNBOUND:                 0.000
REMARK  Name = ZINC000016027969
REMARK  3 active torsions:
REMARK  status: ('A' for Active; 'I' for Inactive)
REMARK    1  A    between atoms: C_8  and  C_9
REMARK    2  A    between atoms: C_10  and  O_11
REMARK    3  A    between atoms: C_14  and  C_15
REMARK                            x       y       z     vdW  Elec       q    Type
REMARK                         _______ _______ _______ _____ _____    ______ ____
ROOT
ATOM      1  C   UNL     1      -3.466   3.299 -22.683  0.00  0.00    +0.020 C 
ATOM      2  C   UNL     1      -2.309   3.173 -23.265  0.00  0.00    +0.036 C 
ATOM      3  C   UNL     1      -2.015   3.558 -24.475  0.00  0.00    +0.336 C 
ATOM      4  O   UNL     1      -0.767   3.266 -24.703  0.00  0.00    -0.453 OA
ATOM      5  C   UNL     1      -0.288   2.699 -23.630  0.00  0.00    +0.207 C 
ATOM      6  C   UNL     1       0.759   2.281 -23.379  0.00  0.00    +0.019 C 
ATOM      7  C   UNL     1       1.737   2.314 -24.225  0.00  0.00    -0.045 C 
ATOM      8  C   UNL     1       2.969   1.803 -23.881  0.00  0.00    +0.144 C 
ATOM      9  C   UNL     1       3.257   1.222 -22.622  0.00  0.00    +0.063 C 
ATOM     10  C   UNL     1       2.356   1.101 -21.612  0.00  0.00    -0.025 C 
ATOM     11  C   UNL     1       1.254   1.531 -21.850  0.00  0.00    -0.076 C 
ATOM     12  C   UNL     1       0.216   1.538 -21.059  0.00  0.00    +0.031 C 
ATOM     13  C   UNL     1      -1.007   2.078 -21.486  0.00  0.00    +0.016 C 
ATOM     14  C   UNL     1       1.156   1.936 -22.806  0.00  0.00    +0.039 C 
ATOM     15  C   UNL     1       1.558   2.835 -25.415  0.00  0.00    +0.041 C 
ATOM     16  O   UNL     1      -2.827   4.136 -25.316  0.00  0.00    -0.245 OA
ATOM     17  C   UNL     1      -1.237   2.642 -22.744  0.00  0.00    +0.070 C 
ENDROOT
BRANCH   8  18
ATOM     18  O   UNL     1       3.930   1.859 -24.772  0.00  0.00    -0.387 OA
ATOM     19  H   UNL     1       3.735   1.244 -25.496  0.00  0.00    +0.210 HD
ENDBRANCH   8  18
TORSDOF 1
ENDMDL
MODEL 7
REMARK VINA RESULT:    -8.751      1.094      1.557
REMARK INTER + INTRA:          -9.007
REMARK INTER:                  -9.007
REMARK INTRA:                   0.000
REMARK UNBOUND:                 0.000
REMARK  Name = ZINC000016027969
REMARK  3 active torsions:
REMARK  status: ('A' for Active; 'I' for Inactive)
REMARK    1  A    between atoms: C_8  and  C_9
REMARK    2  A    between atoms: C_10  and  O_11
REMARK    3  A    between atoms: C_14  and  C_15
REMARK                            x       y       z     vdW  Elec       q    Type
REMARK                         _______ _______ _______ _____ _____    ______ ____
ROOT
ATOM      1  C   UNL     1       2.388   1.270 -21.738  0.00  0.00    +0.020 C 
ATOM      2  C   UNL     1       1.555   1.817 -22.575  0.00  0.00    +0.036 C 
ATOM      3  C   UNL     1       1.836   2.215 -23.784  0.00  0.00    +0.336 C 
ATOM      4  O   UNL     1       0.752   2.708 -24.312  0.00  0.00    -0.453 OA
ATOM      5  C   UNL     1      -0.201   2.615 -23.426  0.00  0.00    +0.207 C 
ATOM      6  C   UNL     1      -1.314   2.921 -23.454  0.00  0.00    +0.019 C 
ATOM      7  C   UNL     1      -1.854   3.470 -24.493  0.00  0.00    -0.045 C 
ATOM      8  C   UNL     1      -3.186   3.818 -24.481  0.00  0.00    +0.144 C 
ATOM      9  C   UNL     1      -4.044   3.612 -23.371  0.00  0.00    +0.063 C 
ATOM     10  C   UNL     1      -3.653   3.050 -22.197  0.00  0.00    -0.025 C 
ATOM     11  C   UNL     1      -2.493   2.722 -22.144  0.00  0.00    -0.076 C 
ATOM     12  C   UNL     1      -1.871   2.166 -21.141  0.00  0.00    +0.031 C 
ATOM     13  C   UNL     1      -0.509   1.841 -21.234  0.00  0.00    +0.016 C 
ATOM     14  C   UNL     1      -1.957   2.920 -23.016  0.00  0.00    +0.039 C 
ATOM     15  C   UNL     1      -1.132   3.696 -25.564  0.00  0.00    +0.041 C 
ATOM     16  O   UNL     1       2.999   2.135 -24.369  0.00  0.00    -0.245 OA
ATOM     17  C   UNL     1       0.294   2.066 -22.356  0.00  0.00    +0.070 C 
ENDROOT
BRANCH   8  18
ATOM     18  O   UNL     1      -3.689   4.371 -25.557  0.00  0.00    -0.387 OA
ATOM     19  H   UNL     1      -3.829   3.692 -26.235  0.00  0.00    +0.210 HD
ENDBRANCH   8  18
TORSDOF 1
ENDMDL
MODEL 8
REMARK VINA RESULT:    -8.476      3.236      6.770
REMARK INTER + INTRA:          -8.724
REMARK INTER:                  -8.724
REMARK INTRA:                   0.000
REMARK UNBOUND:                 0.000
REMARK  Name = ZINC000016027969
REMARK  3 active torsions:
REMARK  status: ('A' for Active; 'I' for Inactive)
REMARK    1  A    between atoms: C_8  and  C_9
REMARK    2  A    between atoms: C_10  and  O_11
REMARK    3  A    between atoms: C_14  and  C_15
REMARK                            x       y       z     vdW  Elec       q    Type
REMARK                         _______ _______ _______ _____ _____    ______ ____
ROOT
ATOM      1  C   UNL     1      -1.308   4.517 -23.607  0.00  0.00    +0.020 C 
ATOM      2  C   UNL     1      -0.335   3.666 -23.458  0.00  0.00    +0.036 C 
ATOM      3  C   UNL     1      -0.457   2.369 -23.391  0.00  0.00    +0.336 C 
ATOM      4  O   UNL     1       0.730   1.857 -23.241  0.00  0.00    -0.453 OA
ATOM      5  C   UNL     1       1.588   2.839 -23.216  0.00  0.00    +0.207 C 
ATOM      6  C   UNL     1       2.737   2.858 -23.103  0.00  0.00    +0.019 C 
ATOM      7  C   UNL     1       3.437   1.778 -22.967  0.00  0.00    -0.045 C 
ATOM      8  C   UNL     1       4.806   1.850 -22.835  0.00  0.00    +0.144 C 
ATOM      9  C   UNL     1       5.535   3.065 -22.837  0.00  0.00    +0.063 C 
ATOM     10  C   UNL     1       4.971   4.295 -22.968  0.00  0.00    -0.025 C 
ATOM     11  C   UNL     1       3.770   4.300 -23.088  0.00  0.00    -0.076 C 
ATOM     12  C   UNL     1       2.991   5.338 -23.229  0.00  0.00    +0.031 C 
ATOM     13  C   UNL     1       1.602   5.180 -23.358  0.00  0.00    +0.016 C 
ATOM     14  C   UNL     1       3.339   3.352 -23.073  0.00  0.00    +0.039 C 
ATOM     15  C   UNL     1       2.842   0.610 -22.955  0.00  0.00    +0.041 C 
ATOM     16  O   UNL     1      -1.573   1.698 -23.461  0.00  0.00    -0.245 OA
ATOM     17  C   UNL     1       0.932   3.953 -23.350  0.00  0.00    +0.070 C 
ENDROOT
BRANCH   8  18
ATOM     18  O   UNL     1       5.472   0.729 -22.700  0.00  0.00    -0.387 OA
ATOM     19  H   UNL     1       5.006   0.018 -23.169  0.00  0.00    +0.210 HD
ENDBRANCH   8  18
TORSDOF 1
ENDMDL
MODEL 9
REMARK VINA RESULT:    -8.243      2.297      3.883
REMARK INTER + INTRA:          -8.483
REMARK INTER:                  -8.483
REMARK INTRA:                   0.000
REMARK UNBOUND:                 0.000
REMARK  Name = ZINC000016027969
REMARK  3 active torsions:
REMARK  status: ('A' for Active; 'I' for Inactive)
REMARK    1  A    between atoms: C_8  and  C_9
REMARK    2  A    between atoms: C_10  and  O_11
REMARK    3  A    between atoms: C_14  and  C_15
REMARK                            x       y       z     vdW  Elec       q    Type
REMARK                         _______ _______ _______ _____ _____    ______ ____
ROOT
ATOM      1  C   UNL     1       4.745   1.753 -21.466  0.00  0.00    +0.020 C 
ATOM      2  C   UNL     1       3.909   2.184 -22.366  0.00  0.00    +0.036 C 
ATOM      3  C   UNL     1       4.226   2.779 -23.481  0.00  0.00    +0.336 C 
ATOM      4  O   UNL     1       3.125   3.061 -24.118  0.00  0.00    -0.453 OA
ATOM      5  C   UNL     1       2.126   2.638 -23.394  0.00  0.00    +0.207 C 
ATOM      6  C   UNL     1       0.984   2.672 -23.559  0.00  0.00    +0.019 C 
ATOM      7  C   UNL     1       0.453   3.198 -24.615  0.00  0.00    -0.045 C 
ATOM      8  C   UNL     1      -0.915   3.216 -24.769  0.00  0.00    +0.144 C 
ATOM      9  C   UNL     1      -1.822   2.680 -23.820  0.00  0.00    +0.063 C 
ATOM     10  C   UNL     1      -1.448   2.090 -22.655  0.00  0.00    -0.025 C 
ATOM     11  C   UNL     1      -0.258   2.043 -22.460  0.00  0.00    -0.076 C 
ATOM     12  C   UNL     1       0.358   1.533 -21.428  0.00  0.00    +0.031 C 
ATOM     13  C   UNL     1       1.759   1.554 -21.347  0.00  0.00    +0.016 C 
ATOM     14  C   UNL     1       0.313   2.466 -23.222  0.00  0.00    +0.039 C 
ATOM     15  C   UNL     1       1.219   3.717 -25.544  0.00  0.00    +0.041 C 
ATOM     16  O   UNL     1       5.433   3.049 -23.893  0.00  0.00    -0.245 OA
ATOM     17  C   UNL     1       2.609   2.098 -22.315  0.00  0.00    +0.070 C 
ENDROOT
BRANCH   8  18
ATOM     18  O   UNL     1      -1.407   3.760 -25.856  0.00  0.00    -0.387 OA
ATOM     19  H   UNL     1      -1.736   4.649 -25.651  0.00  0.00    +0.210 HD
ENDBRANCH   8  18
TORSDOF 1
ENDMDL
