MODEL 1
REMARK VINA RESULT:   -12.456      0.000      0.000
REMARK INTER + INTRA:         -12.456
REMARK INTER:                 -12.456
REMARK INTRA:                   0.000
REMARK UNBOUND:                 0.000
REMARK  Name = C[C@]12CC[C@H]3[C@@H](CC(=O)[C@H]4CC(=O)CC[C@@]43C)[C@@H]1CCC2=O     ZINC000118913916
REMARK  2 active torsions:
REMARK  status: ('A' for Active; 'I' for Inactive)
REMARK    1  A    between atoms: C_1  and  C_2
REMARK    2  A    between atoms: C_16  and  C_17
REMARK                            x       y       z     vdW  Elec       q    Type
REMARK                         _______ _______ _______ _____ _____    ______ ____
ROOT
ATOM      1  C   UNL     1      -4.834   2.900 -21.635  0.00  0.00    +0.019 C 
ATOM      2  C   UNL     1      -3.981   3.169 -22.578  0.00  0.00    +0.029 C 
ATOM      3  C   UNL     1      -3.461   2.565 -21.550  0.00  0.00    +0.015 C 
ATOM      4  C   UNL     1      -2.192   2.284 -21.534  0.00  0.00    +0.005 C 
ATOM      5  C   UNL     1      -1.442   2.608 -22.546  0.00  0.00    -0.001 C 
ATOM      6  C   UNL     1      -1.961   3.212 -23.573  0.00  0.00    +0.004 C 
ATOM      7  C   UNL     1      -1.212   3.536 -24.585  0.00  0.00    +0.078 C 
ATOM      8  C   UNL     1       0.057   3.256 -24.569  0.00  0.00    +0.138 C 
ATOM      9  C   UNL     1       0.577   2.652 -23.541  0.00  0.00    +0.068 C 
ATOM     10  C   UNL     1       1.846   2.371 -23.526  0.00  0.00    +0.086 C 
ATOM     11  C   UNL     1       2.366   1.767 -22.498  0.00  0.00    +0.134 C 
ATOM     12  C   UNL     1       1.616   1.443 -21.487  0.00  0.00    +0.075 C 
ATOM     13  C   UNL     1       0.347   1.724 -21.503  0.00  0.00    +0.015 C 
ATOM     14  O   UNL     1       3.635   1.487 -22.482  0.00  0.00    -0.297 OA
ATOM     15  O   UNL     1       0.808   3.579 -25.580  0.00  0.00    -0.297 OA
ATOM     16  C   UNL     1      -0.173   2.328 -22.530  0.00  0.00    -0.019 C 
ATOM     17  C   UNL     1      -0.923   2.004 -21.519  0.00  0.00    +0.012 C 
ATOM     18  C   UNL     1      -5.194   3.555 -22.838  0.00  0.00    +0.139 C 
ATOM     19  O   UNL     1      -6.227   3.405 -22.062  0.00  0.00    -0.297 OA
ATOM     20  C   UNL     1      -5.195   4.117 -24.010  0.00  0.00    +0.075 C 
ATOM     21  C   UNL     1      -3.982   4.079 -24.474  0.00  0.00    +0.012 C 
ATOM     22  C   UNL     1      -3.231   3.493 -23.589  0.00  0.00    +0.006 C 
ENDROOT
TORSDOF 0
ENDMDL
MODEL 2
REMARK VINA RESULT:   -12.134      1.133      2.653
REMARK INTER + INTRA:         -12.134
REMARK INTER:                 -12.134
REMARK INTRA:                   0.000
REMARK UNBOUND:                 0.000
REMARK  Name = C[C@]12CC[C@H]3[C@@H](CC(=O)[C@H]4CC(=O)CC[C@@]43C)[C@@H]1CCC2=O     ZINC000118913916
REMARK  2 active torsions:
REMARK  status: ('A' for Active; 'I' for Inactive)
REMARK    1  A    between atoms: C_1  and  C_2
REMARK    2  A    between atoms: C_16  and  C_17
REMARK                            x       y       z     vdW  Elec       q    Type
REMARK                         _______ _______ _______ _____ _____    ______ ____
ROOT
ATOM      1  C   UNL     1      -4.533   3.778 -23.914  0.00  0.00    +0.019 C 
ATOM      2  C   UNL     1      -3.694   3.264 -23.066  0.00  0.00    +0.029 C 
ATOM      3  C   UNL     1      -3.157   3.605 -24.199  0.00  0.00    +0.015 C 
ATOM      4  C   UNL     1      -1.886   3.420 -24.399  0.00  0.00    +0.005 C 
ATOM      5  C   UNL     1      -1.151   2.894 -23.464  0.00  0.00    -0.001 C 
ATOM      6  C   UNL     1      -1.688   2.552 -22.331  0.00  0.00    +0.004 C 
ATOM      7  C   UNL     1      -0.954   2.026 -21.396  0.00  0.00    +0.078 C 
ATOM      8  C   UNL     1       0.317   1.840 -21.595  0.00  0.00    +0.138 C 
ATOM      9  C   UNL     1       0.855   2.182 -22.729  0.00  0.00    +0.068 C 
ATOM     10  C   UNL     1       2.125   1.997 -22.928  0.00  0.00    +0.086 C 
ATOM     11  C   UNL     1       2.662   2.338 -24.062  0.00  0.00    +0.134 C 
ATOM     12  C   UNL     1       1.928   2.865 -24.997  0.00  0.00    +0.075 C 
ATOM     13  C   UNL     1       0.657   3.050 -24.798  0.00  0.00    +0.015 C 
ATOM     14  O   UNL     1       3.933   2.153 -24.262  0.00  0.00    -0.297 OA
ATOM     15  O   UNL     1       1.052   1.314 -20.661  0.00  0.00    -0.297 OA
ATOM     16  C   UNL     1       0.119   2.708 -23.663  0.00  0.00    -0.019 C 
ATOM     17  C   UNL     1      -0.615   3.235 -24.598  0.00  0.00    +0.012 C 
ATOM     18  C   UNL     1      -4.913   3.341 -22.622  0.00  0.00    +0.139 C 
ATOM     19  O   UNL     1      -5.935   3.814 -23.273  0.00  0.00    -0.297 OA
ATOM     20  C   UNL     1      -4.933   2.862 -21.414  0.00  0.00    +0.075 C 
ATOM     21  C   UNL     1      -3.725   2.489 -21.110  0.00  0.00    +0.012 C 
ATOM     22  C   UNL     1      -2.959   2.737 -22.131  0.00  0.00    +0.006 C 
ENDROOT
TORSDOF 0
ENDMDL
MODEL 3
REMARK VINA RESULT:   -11.816      1.129      5.532
REMARK INTER + INTRA:         -11.816
REMARK INTER:                 -11.816
REMARK INTRA:                   0.000
REMARK UNBOUND:                 0.000
REMARK  Name = C[C@]12CC[C@H]3[C@@H](CC(=O)[C@H]4CC(=O)CC[C@@]43C)[C@@H]1CCC2=O     ZINC000118913916
REMARK  2 active torsions:
REMARK  status: ('A' for Active; 'I' for Inactive)
REMARK    1  A    between atoms: C_1  and  C_2
REMARK    2  A    between atoms: C_16  and  C_17
REMARK                            x       y       z     vdW  Elec       q    Type
REMARK                         _______ _______ _______ _____ _____    ______ ____
ROOT
ATOM      1  C   UNL     1       2.117   1.487 -21.960  0.00  0.00    +0.019 C 
ATOM      2  C   UNL     1       1.353   2.017 -22.868  0.00  0.00    +0.029 C 
ATOM      3  C   UNL     1       0.736   1.728 -21.761  0.00  0.00    +0.015 C 
ATOM      4  C   UNL     1      -0.535   1.974 -21.641  0.00  0.00    +0.005 C 
ATOM      5  C   UNL     1      -1.189   2.511 -22.628  0.00  0.00    -0.001 C 
ATOM      6  C   UNL     1      -0.572   2.800 -23.735  0.00  0.00    +0.004 C 
ATOM      7  C   UNL     1      -1.226   3.337 -24.723  0.00  0.00    +0.078 C 
ATOM      8  C   UNL     1      -2.496   3.583 -24.603  0.00  0.00    +0.138 C 
ATOM      9  C   UNL     1      -3.113   3.294 -23.495  0.00  0.00    +0.068 C 
ATOM     10  C   UNL     1      -4.384   3.540 -23.376  0.00  0.00    +0.086 C 
ATOM     11  C   UNL     1      -5.000   3.251 -22.269  0.00  0.00    +0.134 C 
ATOM     12  C   UNL     1      -4.347   2.714 -21.281  0.00  0.00    +0.075 C 
ATOM     13  C   UNL     1      -3.076   2.468 -21.401  0.00  0.00    +0.015 C 
ATOM     14  O   UNL     1      -6.271   3.497 -22.149  0.00  0.00    -0.297 OA
ATOM     15  O   UNL     1      -3.150   4.120 -25.590  0.00  0.00    -0.297 OA
ATOM     16  C   UNL     1      -2.459   2.757 -22.508  0.00  0.00    -0.019 C 
ATOM     17  C   UNL     1      -1.805   2.221 -21.521  0.00  0.00    +0.012 C 
ATOM     18  C   UNL     1       2.591   1.875 -23.237  0.00  0.00    +0.139 C 
ATOM     19  O   UNL     1       3.551   1.373 -22.517  0.00  0.00    -0.297 OA
ATOM     20  C   UNL     1       2.703   2.324 -24.452  0.00  0.00    +0.075 C 
ATOM     21  C   UNL     1       1.534   2.743 -24.834  0.00  0.00    +0.012 C 
ATOM     22  C   UNL     1       0.699   2.554 -23.855  0.00  0.00    +0.006 C 
ENDROOT
TORSDOF 0
ENDMDL
MODEL 4
REMARK VINA RESULT:   -10.832      1.375      6.142
REMARK INTER + INTRA:         -10.832
REMARK INTER:                 -10.832
REMARK INTRA:                   0.000
REMARK UNBOUND:                 0.000
REMARK  Name = C[C@]12CC[C@H]3[C@@H](CC(=O)[C@H]4CC(=O)CC[C@@]43C)[C@@H]1CCC2=O     ZINC000118913916
REMARK  2 active torsions:
REMARK  status: ('A' for Active; 'I' for Inactive)
REMARK    1  A    between atoms: C_1  and  C_2
REMARK    2  A    between atoms: C_16  and  C_17
REMARK                            x       y       z     vdW  Elec       q    Type
REMARK                         _______ _______ _______ _____ _____    ______ ____
ROOT
ATOM      1  C   UNL     1       2.828   2.346 -23.965  0.00  0.00    +0.019 C 
ATOM      2  C   UNL     1       1.815   2.205 -23.163  0.00  0.00    +0.029 C 
ATOM      3  C   UNL     1       1.516   2.756 -24.302  0.00  0.00    +0.015 C 
ATOM      4  C   UNL     1       0.290   3.111 -24.551  0.00  0.00    +0.005 C 
ATOM      5  C   UNL     1      -0.637   2.914 -23.661  0.00  0.00    -0.001 C 
ATOM      6  C   UNL     1      -0.338   2.362 -22.523  0.00  0.00    +0.004 C 
ATOM      7  C   UNL     1      -1.265   2.165 -21.633  0.00  0.00    +0.078 C 
ATOM      8  C   UNL     1      -2.490   2.519 -21.881  0.00  0.00    +0.138 C 
ATOM      9  C   UNL     1      -2.790   3.071 -23.020  0.00  0.00    +0.068 C 
ATOM     10  C   UNL     1      -4.015   3.425 -23.269  0.00  0.00    +0.086 C 
ATOM     11  C   UNL     1      -4.314   3.977 -24.407  0.00  0.00    +0.134 C 
ATOM     12  C   UNL     1      -3.387   4.174 -25.297  0.00  0.00    +0.075 C 
ATOM     13  C   UNL     1      -2.162   3.820 -25.049  0.00  0.00    +0.015 C 
ATOM     14  O   UNL     1      -5.540   4.331 -24.656  0.00  0.00    -0.297 OA
ATOM     15  O   UNL     1      -3.418   2.322 -20.992  0.00  0.00    -0.297 OA
ATOM     16  C   UNL     1      -1.862   3.268 -23.910  0.00  0.00    -0.019 C 
ATOM     17  C   UNL     1      -0.936   3.465 -24.800  0.00  0.00    +0.012 C 
ATOM     18  C   UNL     1       2.938   1.768 -22.676  0.00  0.00    +0.139 C 
ATOM     19  O   UNL     1       4.092   1.794 -23.275  0.00  0.00    -0.297 OA
ATOM     20  C   UNL     1       2.706   1.301 -21.486  0.00  0.00    +0.075 C 
ATOM     21  C   UNL     1       1.439   1.449 -21.237  0.00  0.00    +0.012 C 
ATOM     22  C   UNL     1       0.888   2.007 -22.273  0.00  0.00    +0.006 C 
ENDROOT
TORSDOF 0
ENDMDL
MODEL 5
REMARK VINA RESULT:   -10.660      1.985      3.954
REMARK INTER + INTRA:         -10.660
REMARK INTER:                 -10.660
REMARK INTRA:                   0.000
REMARK UNBOUND:                 0.000
REMARK  Name = C[C@]12CC[C@H]3[C@@H](CC(=O)[C@H]4CC(=O)CC[C@@]43C)[C@@H]1CCC2=O     ZINC000118913916
REMARK  2 active torsions:
REMARK  status: ('A' for Active; 'I' for Inactive)
REMARK    1  A    between atoms: C_1  and  C_2
REMARK    2  A    between atoms: C_16  and  C_17
REMARK                            x       y       z     vdW  Elec       q    Type
REMARK                         _______ _______ _______ _____ _____    ______ ____
ROOT
ATOM      1  C   UNL     1      -1.573   4.499 -23.662  0.00  0.00    +0.019 C 
ATOM      2  C   UNL     1      -0.934   3.574 -23.009  0.00  0.00    +0.029 C 
ATOM      3  C   UNL     1      -0.160   4.426 -23.613  0.00  0.00    +0.015 C 
ATOM      4  C   UNL     1       1.132   4.303 -23.530  0.00  0.00    +0.005 C 
ATOM      5  C   UNL     1       1.649   3.329 -22.842  0.00  0.00    -0.001 C 
ATOM      6  C   UNL     1       0.874   2.477 -22.237  0.00  0.00    +0.004 C 
ATOM      7  C   UNL     1       1.391   1.503 -21.549  0.00  0.00    +0.078 C 
ATOM      8  C   UNL     1       2.682   1.380 -21.466  0.00  0.00    +0.138 C 
ATOM      9  C   UNL     1       3.457   2.232 -22.070  0.00  0.00    +0.068 C 
ATOM     10  C   UNL     1       4.748   2.109 -21.986  0.00  0.00    +0.086 C 
ATOM     11  C   UNL     1       5.523   2.961 -22.590  0.00  0.00    +0.134 C 
ATOM     12  C   UNL     1       5.006   3.935 -23.278  0.00  0.00    +0.075 C 
ATOM     13  C   UNL     1       3.715   4.058 -23.362  0.00  0.00    +0.015 C 
ATOM     14  O   UNL     1       6.815   2.838 -22.507  0.00  0.00    -0.297 OA
ATOM     15  O   UNL     1       3.200   0.406 -20.778  0.00  0.00    -0.297 OA
ATOM     16  C   UNL     1       2.940   3.206 -22.758  0.00  0.00    -0.019 C 
ATOM     17  C   UNL     1       2.423   4.180 -23.446  0.00  0.00    +0.012 C 
ATOM     18  C   UNL     1      -2.228   3.475 -22.936  0.00  0.00    +0.139 C 
ATOM     19  O   UNL     1      -3.090   4.271 -23.497  0.00  0.00    -0.297 OA
ATOM     20  C   UNL     1      -2.511   2.439 -22.203  0.00  0.00    +0.075 C 
ATOM     21  C   UNL     1      -1.392   1.899 -21.823  0.00  0.00    +0.012 C 
ATOM     22  C   UNL     1      -0.417   2.600 -22.321  0.00  0.00    +0.006 C 
ENDROOT
TORSDOF 0
ENDMDL
MODEL 6
REMARK VINA RESULT:   -10.196      1.947      6.451
REMARK INTER + INTRA:         -10.196
REMARK INTER:                 -10.196
REMARK INTRA:                   0.000
REMARK UNBOUND:                 0.000
REMARK  Name = C[C@]12CC[C@H]3[C@@H](CC(=O)[C@H]4CC(=O)CC[C@@]43C)[C@@H]1CCC2=O     ZINC000118913916
REMARK  2 active torsions:
REMARK  status: ('A' for Active; 'I' for Inactive)
REMARK    1  A    between atoms: C_1  and  C_2
REMARK    2  A    between atoms: C_16  and  C_17
REMARK                            x       y       z     vdW  Elec       q    Type
REMARK                         _______ _______ _______ _____ _____    ______ ____
ROOT
ATOM      1  C   UNL     1       4.293   2.723 -23.561  0.00  0.00    +0.019 C 
ATOM      2  C   UNL     1       3.237   2.402 -22.873  0.00  0.00    +0.029 C 
ATOM      3  C   UNL     1       2.974   2.939 -24.028  0.00  0.00    +0.015 C 
ATOM      4  C   UNL     1       1.740   3.110 -24.399  0.00  0.00    +0.005 C 
ATOM      5  C   UNL     1       0.769   2.744 -23.616  0.00  0.00    -0.001 C 
ATOM      6  C   UNL     1       1.032   2.208 -22.461  0.00  0.00    +0.004 C 
ATOM      7  C   UNL     1       0.062   1.842 -21.678  0.00  0.00    +0.078 C 
ATOM      8  C   UNL     1      -1.172   2.013 -22.048  0.00  0.00    +0.138 C 
ATOM      9  C   UNL     1      -1.436   2.550 -23.203  0.00  0.00    +0.068 C 
ATOM     10  C   UNL     1      -2.670   2.721 -23.574  0.00  0.00    +0.086 C 
ATOM     11  C   UNL     1      -2.933   3.257 -24.728  0.00  0.00    +0.134 C 
ATOM     12  C   UNL     1      -1.962   3.623 -25.512  0.00  0.00    +0.075 C 
ATOM     13  C   UNL     1      -0.728   3.452 -25.141  0.00  0.00    +0.015 C 
ATOM     14  O   UNL     1      -4.167   3.428 -25.100  0.00  0.00    -0.297 OA
ATOM     15  O   UNL     1      -2.143   1.647 -21.265  0.00  0.00    -0.297 OA
ATOM     16  C   UNL     1      -0.465   2.915 -23.986  0.00  0.00    -0.019 C 
ATOM     17  C   UNL     1       0.506   3.281 -24.770  0.00  0.00    +0.012 C 
ATOM     18  C   UNL     1       4.360   2.127 -22.278  0.00  0.00    +0.139 C 
ATOM     19  O   UNL     1       5.551   2.348 -22.750  0.00  0.00    -0.297 OA
ATOM     20  C   UNL     1       4.082   1.591 -21.126  0.00  0.00    +0.075 C 
ATOM     21  C   UNL     1       2.789   1.535 -21.010  0.00  0.00    +0.012 C 
ATOM     22  C   UNL     1       2.267   2.037 -22.090  0.00  0.00    +0.006 C 
ENDROOT
TORSDOF 0
ENDMDL
MODEL 7
REMARK VINA RESULT:    -9.935      2.676      7.006
REMARK INTER + INTRA:          -9.935
REMARK INTER:                  -9.935
REMARK INTRA:                   0.000
REMARK UNBOUND:                 0.000
REMARK  Name = C[C@]12CC[C@H]3[C@@H](CC(=O)[C@H]4CC(=O)CC[C@@]43C)[C@@H]1CCC2=O     ZINC000118913916
REMARK  2 active torsions:
REMARK  status: ('A' for Active; 'I' for Inactive)
REMARK    1  A    between atoms: C_1  and  C_2
REMARK    2  A    between atoms: C_16  and  C_17
REMARK                            x       y       z     vdW  Elec       q    Type
REMARK                         _______ _______ _______ _____ _____    ______ ____
ROOT
ATOM      1  C   UNL     1       5.400   4.983 -22.959  0.00  0.00    +0.019 C 
ATOM      2  C   UNL     1       4.612   3.968 -22.761  0.00  0.00    +0.029 C 
ATOM      3  C   UNL     1       3.995   5.056 -23.116  0.00  0.00    +0.015 C 
ATOM      4  C   UNL     1       2.701   5.057 -23.243  0.00  0.00    +0.005 C 
ATOM      5  C   UNL     1       2.024   3.971 -23.014  0.00  0.00    -0.001 C 
ATOM      6  C   UNL     1       2.641   2.883 -22.658  0.00  0.00    +0.004 C 
ATOM      7  C   UNL     1       1.965   1.797 -22.429  0.00  0.00    +0.078 C 
ATOM      8  C   UNL     1       0.672   1.798 -22.556  0.00  0.00    +0.138 C 
ATOM      9  C   UNL     1       0.054   2.886 -22.912  0.00  0.00    +0.068 C 
ATOM     10  C   UNL     1      -1.240   2.887 -23.038  0.00  0.00    +0.086 C 
ATOM     11  C   UNL     1      -1.857   3.974 -23.394  0.00  0.00    +0.134 C 
ATOM     12  C   UNL     1      -1.180   5.061 -23.623  0.00  0.00    +0.075 C 
ATOM     13  C   UNL     1       0.113   5.060 -23.496  0.00  0.00    +0.015 C 
ATOM     14  O   UNL     1      -3.151   3.976 -23.521  0.00  0.00    -0.297 OA
ATOM     15  O   UNL     1      -0.005   0.712 -22.327  0.00  0.00    -0.297 OA
ATOM     16  C   UNL     1       0.731   3.972 -23.140  0.00  0.00    -0.019 C 
ATOM     17  C   UNL     1       1.407   5.058 -23.369  0.00  0.00    +0.012 C 
ATOM     18  C   UNL     1       5.870   3.706 -22.566  0.00  0.00    +0.139 C 
ATOM     19  O   UNL     1       6.855   4.545 -22.698  0.00  0.00    -0.297 OA
ATOM     20  C   UNL     1       5.972   2.458 -22.217  0.00  0.00    +0.075 C 
ATOM     21  C   UNL     1       4.776   1.949 -22.196  0.00  0.00    +0.012 C 
ATOM     22  C   UNL     1       3.936   2.882 -22.531  0.00  0.00    +0.006 C 
ENDROOT
TORSDOF 0
ENDMDL
