MODEL 1
REMARK VINA RESULT:    -9.689      0.000      0.000
REMARK INTER + INTRA:         -13.625
REMARK INTER:                 -12.732
REMARK INTRA:                  -0.893
REMARK UNBOUND:                -0.820
REMARK  Name = ZINC000005683197
REMARK  7 active torsions:
REMARK  status: ('A' for Active; 'I' for Inactive)
REMARK    1  A    between atoms: O5*_1  and  C5*_2
REMARK    2  A    between atoms: C5*_2  and  C4*_3
REMARK    3  A    between atoms: C1*_5  and  N_6
REMARK    4  A    between atoms: N_11  and  C_12
REMARK    5  A    between atoms: C_12  and  C_13
REMARK    6  A    between atoms: C2*_23  and  O2*_24
REMARK    7  A    between atoms: C3*_25  and  O3*_26
REMARK                            x       y       z     vdW  Elec       q    Type
REMARK                         _______ _______ _______ _____ _____    ______ ____
ROOT
ATOM      1  N   UNL     1       3.175   2.391 -23.053  0.00  0.00    -0.286 N 
ATOM      2  C   UNL     1       2.677   1.191 -23.059  0.00  0.00    +0.203 A 
ATOM      3  N   UNL     1       1.405   1.285 -23.312  0.00  0.00    -0.231 NA
ATOM      4  C   UNL     1       1.117   2.544 -23.461  0.00  0.00    +0.147 A 
ATOM      5  C   UNL     1       0.000   3.157 -23.722  0.00  0.00    +0.150 A 
ATOM      6  N   UNL     1      -0.022   4.453 -23.823  0.00  0.00    -0.219 NA
ATOM      7  C   UNL     1       1.072   5.136 -23.663  0.00  0.00    +0.225 A 
ATOM      8  N   UNL     1       2.189   4.524 -23.402  0.00  0.00    -0.216 NA
ATOM      9  N   UNL     1      -1.094   2.473 -23.882  0.00  0.00    -0.323 N 
ATOM     10  H   UNL     1      -1.076   1.491 -23.805  0.00  0.00    +0.148 HD
ATOM     11  C   UNL     1       2.211   3.228 -23.301  0.00  0.00    +0.167 A 
ENDROOT
BRANCH   1  14
ATOM     12  C4* UNL     1       6.426   3.252 -23.143  0.00  0.00    +0.177 C 
ATOM     13  O4* UNL     1       5.301   3.001 -23.744  0.00  0.00    -0.346 OA
ATOM     14  C1* UNL     1       4.419   2.702 -22.836  0.00  0.00    +0.253 C 
ATOM     15  C2* UNL     1       4.999   2.768 -21.675  0.00  0.00    +0.195 C 
ATOM     16  C3* UNL     1       6.240   3.108 -21.865  0.00  0.00    +0.178 C 
BRANCH  15  17
ATOM     17  O2* UNL     1       4.438   2.536 -20.526  0.00  0.00    -0.385 OA
ATOM     18  H2* UNL     1       3.502   2.321 -20.661  0.00  0.00    +0.210 HD
ENDBRANCH  15  17
BRANCH  16  19
ATOM     19  O3* UNL     1       7.136   3.275 -20.939  0.00  0.00    -0.386 OA
ATOM     20  H3* UNL     1       8.021   3.237 -21.335  0.00  0.00    +0.210 HD
ENDBRANCH  16  19
BRANCH  12  21
ATOM     21  C5* UNL     1       7.541   3.587 -23.720  0.00  0.00    +0.190 C 
BRANCH  21  22
ATOM     22  O5* UNL     1       8.612   2.874 -23.529  0.00  0.00    -0.392 OA
ATOM     23  H5* UNL     1       9.198   2.961 -24.297  0.00  0.00    +0.210 HD
ENDBRANCH  21  22
ENDBRANCH  12  21
ENDBRANCH   1  14
BRANCH   9  24
ATOM     24  C   UNL     1      -2.210   3.085 -24.143  0.00  0.00    +0.138 C 
BRANCH  24  25
ATOM     25  C   UNL     1      -3.179   3.067 -23.276  0.00  0.00    -0.030 A 
ATOM     26  C   UNL     1      -2.981   2.574 -22.090  0.00  0.00    +0.005 A 
ATOM     27  C   UNL     1      -3.950   2.556 -21.223  0.00  0.00    +0.000 A 
ATOM     28  C   UNL     1      -5.117   3.031 -21.543  0.00  0.00    +0.000 A 
ATOM     29  C   UNL     1      -5.316   3.524 -22.730  0.00  0.00    +0.000 A 
ATOM     30  C   UNL     1      -4.347   3.542 -23.596  0.00  0.00    +0.005 A 
ENDBRANCH  24  25
ENDBRANCH   9  24
TORSDOF 7
ENDMDL
MODEL 2
REMARK VINA RESULT:    -9.393      1.266      2.483
REMARK INTER + INTRA:         -13.233
REMARK INTER:                 -12.576
REMARK INTRA:                  -0.657
REMARK UNBOUND:                -0.820
REMARK  Name = ZINC000005683197
REMARK  7 active torsions:
REMARK  status: ('A' for Active; 'I' for Inactive)
REMARK    1  A    between atoms: O5*_1  and  C5*_2
REMARK    2  A    between atoms: C5*_2  and  C4*_3
REMARK    3  A    between atoms: C1*_5  and  N_6
REMARK    4  A    between atoms: N_11  and  C_12
REMARK    5  A    between atoms: C_12  and  C_13
REMARK    6  A    between atoms: C2*_23  and  O2*_24
REMARK    7  A    between atoms: C3*_25  and  O3*_26
REMARK                            x       y       z     vdW  Elec       q    Type
REMARK                         _______ _______ _______ _____ _____    ______ ____
ROOT
ATOM      1  N   UNL     1       3.309   4.009 -22.900  0.00  0.00    -0.286 N 
ATOM      2  C   UNL     1       2.672   5.074 -23.283  0.00  0.00    +0.203 A 
ATOM      3  N   UNL     1       1.400   4.800 -23.296  0.00  0.00    -0.231 NA
ATOM      4  C   UNL     1       1.253   3.564 -22.920  0.00  0.00    +0.147 A 
ATOM      5  C   UNL     1       0.197   2.820 -22.768  0.00  0.00    +0.150 A 
ATOM      6  N   UNL     1       0.321   1.588 -22.372  0.00  0.00    -0.219 NA
ATOM      7  C   UNL     1       1.500   1.099 -22.127  0.00  0.00    +0.225 A 
ATOM      8  N   UNL     1       2.556   1.843 -22.279  0.00  0.00    -0.216 NA
ATOM      9  N   UNL     1      -0.982   3.309 -23.013  0.00  0.00    -0.323 N 
ATOM     10  H   UNL     1      -1.076   4.243 -23.313  0.00  0.00    +0.148 HD
ATOM     11  C   UNL     1       2.433   3.075 -22.675  0.00  0.00    +0.167 A 
ENDROOT
BRANCH   1  14
ATOM     12  C4* UNL     1       6.571   4.182 -22.096  0.00  0.00    +0.177 C 
ATOM     13  O4* UNL     1       5.341   4.573 -21.941  0.00  0.00    -0.346 OA
ATOM     14  C1* UNL     1       4.597   3.895 -22.764  0.00  0.00    +0.253 C 
ATOM     15  C2* UNL     1       5.367   3.085 -23.427  0.00  0.00    +0.195 C 
ATOM     16  C3* UNL     1       6.588   3.262 -23.014  0.00  0.00    +0.178 C 
BRANCH  15  17
ATOM     17  O2* UNL     1       4.985   2.245 -24.342  0.00  0.00    -0.385 OA
ATOM     18  H2* UNL     1       5.121   1.338 -24.026  0.00  0.00    +0.210 HD
ENDBRANCH  15  17
BRANCH  16  19
ATOM     19  O3* UNL     1       7.639   2.630 -23.444  0.00  0.00    -0.386 OA
ATOM     20  H3* UNL     1       8.174   3.228 -23.989  0.00  0.00    +0.210 HD
ENDBRANCH  16  19
BRANCH  12  21
ATOM     21  C5* UNL     1       7.603   4.631 -21.446  0.00  0.00    +0.190 C 
BRANCH  21  22
ATOM     22  O5* UNL     1       7.671   4.489 -20.156  0.00  0.00    -0.392 OA
ATOM     23  H5* UNL     1       8.583   4.641 -19.862  0.00  0.00    +0.210 HD
ENDBRANCH  21  22
ENDBRANCH  12  21
ENDBRANCH   1  14
BRANCH   9  24
ATOM     24  C   UNL     1      -2.038   2.566 -22.862  0.00  0.00    +0.138 C 
BRANCH  24  25
ATOM     25  C   UNL     1      -3.209   3.028 -23.185  0.00  0.00    -0.030 A 
ATOM     26  C   UNL     1      -3.424   3.472 -24.388  0.00  0.00    +0.005 A 
ATOM     27  C   UNL     1      -4.595   3.934 -24.711  0.00  0.00    +0.000 A 
ATOM     28  C   UNL     1      -5.552   3.952 -23.832  0.00  0.00    +0.000 A 
ATOM     29  C   UNL     1      -5.338   3.508 -22.629  0.00  0.00    +0.000 A 
ATOM     30  C   UNL     1      -4.167   3.046 -22.305  0.00  0.00    +0.005 A 
ENDBRANCH  24  25
ENDBRANCH   9  24
TORSDOF 7
ENDMDL
MODEL 3
REMARK VINA RESULT:    -8.519      3.562      8.650
REMARK INTER + INTRA:         -12.078
REMARK INTER:                 -11.074
REMARK INTRA:                  -1.005
REMARK UNBOUND:                -0.820
REMARK  Name = ZINC000005683197
REMARK  7 active torsions:
REMARK  status: ('A' for Active; 'I' for Inactive)
REMARK    1  A    between atoms: O5*_1  and  C5*_2
REMARK    2  A    between atoms: C5*_2  and  C4*_3
REMARK    3  A    between atoms: C1*_5  and  N_6
REMARK    4  A    between atoms: N_11  and  C_12
REMARK    5  A    between atoms: C_12  and  C_13
REMARK    6  A    between atoms: C2*_23  and  O2*_24
REMARK    7  A    between atoms: C3*_25  and  O3*_26
REMARK                            x       y       z     vdW  Elec       q    Type
REMARK                         _______ _______ _______ _____ _____    ______ ____
ROOT
ATOM      1  N   UNL     1      -0.036   4.015 -23.590  0.00  0.00    -0.286 N 
ATOM      2  C   UNL     1       0.530   5.184 -23.627  0.00  0.00    +0.203 A 
ATOM      3  N   UNL     1       1.781   5.036 -23.306  0.00  0.00    -0.231 NA
ATOM      4  C   UNL     1       1.988   3.774 -23.070  0.00  0.00    +0.147 A 
ATOM      5  C   UNL     1       3.055   3.118 -22.719  0.00  0.00    +0.150 A 
ATOM      6  N   UNL     1       2.998   1.831 -22.543  0.00  0.00    -0.219 NA
ATOM      7  C   UNL     1       1.875   1.200 -22.719  0.00  0.00    +0.225 A 
ATOM      8  N   UNL     1       0.809   1.856 -23.071  0.00  0.00    -0.216 NA
ATOM      9  N   UNL     1       4.177   3.749 -22.543  0.00  0.00    -0.323 N 
ATOM     10  H   UNL     1       4.220   4.724 -22.676  0.00  0.00    +0.148 HD
ATOM     11  C   UNL     1       0.866   3.143 -23.246  0.00  0.00    +0.167 A 
ENDROOT
BRANCH   1  14
ATOM     12  C4* UNL     1      -3.355   3.467 -23.628  0.00  0.00    +0.177 C 
ATOM     13  O4* UNL     1      -2.261   3.769 -22.994  0.00  0.00    -0.346 OA
ATOM     14  C1* UNL     1      -1.284   3.760 -23.852  0.00  0.00    +0.253 C 
ATOM     15  C2* UNL     1      -1.774   3.453 -25.015  0.00  0.00    +0.195 C 
ATOM     16  C3* UNL     1      -3.054   3.271 -24.877  0.00  0.00    +0.178 C 
BRANCH  15  17
ATOM     17  O2* UNL     1      -1.102   3.345 -26.123  0.00  0.00    -0.385 OA
ATOM     18  H2* UNL     1      -0.620   4.170 -26.290  0.00  0.00    +0.210 HD
ENDBRANCH  15  17
BRANCH  16  19
ATOM     19  O3* UNL     1      -3.886   2.951 -25.822  0.00  0.00    -0.386 OA
ATOM     20  H3* UNL     1      -3.426   2.966 -26.676  0.00  0.00    +0.210 HD
ENDBRANCH  16  19
BRANCH  12  21
ATOM     21  C5* UNL     1      -4.541   3.376 -23.104  0.00  0.00    +0.190 C 
BRANCH  21  22
ATOM     22  O5* UNL     1      -5.531   4.043 -23.619  0.00  0.00    -0.392 OA
ATOM     23  H5* UNL     1      -6.188   3.423 -23.973  0.00  0.00    +0.210 HD
ENDBRANCH  21  22
ENDBRANCH  12  21
ENDBRANCH   1  14
BRANCH   9  24
ATOM     24  C   UNL     1       5.243   3.094 -22.191  0.00  0.00    +0.138 C 
BRANCH  24  25
ATOM     25  C   UNL     1       6.387   3.707 -22.111  0.00  0.00    -0.030 A 
ATOM     26  C   UNL     1       6.805   4.155 -20.965  0.00  0.00    +0.005 A 
ATOM     27  C   UNL     1       7.949   4.768 -20.886  0.00  0.00    +0.000 A 
ATOM     28  C   UNL     1       8.674   4.934 -21.952  0.00  0.00    +0.000 A 
ATOM     29  C   UNL     1       8.255   4.486 -23.099  0.00  0.00    +0.000 A 
ATOM     30  C   UNL     1       7.112   3.873 -23.179  0.00  0.00    +0.005 A 
ENDBRANCH  24  25
ENDBRANCH   9  24
TORSDOF 7
ENDMDL
MODEL 4
REMARK VINA RESULT:    -8.419      3.898      8.195
REMARK INTER + INTRA:         -11.946
REMARK INTER:                 -11.636
REMARK INTRA:                  -0.311
REMARK UNBOUND:                -0.820
REMARK  Name = ZINC000005683197
REMARK  7 active torsions:
REMARK  status: ('A' for Active; 'I' for Inactive)
REMARK    1  A    between atoms: O5*_1  and  C5*_2
REMARK    2  A    between atoms: C5*_2  and  C4*_3
REMARK    3  A    between atoms: C1*_5  and  N_6
REMARK    4  A    between atoms: N_11  and  C_12
REMARK    5  A    between atoms: C_12  and  C_13
REMARK    6  A    between atoms: C2*_23  and  O2*_24
REMARK    7  A    between atoms: C3*_25  and  O3*_26
REMARK                            x       y       z     vdW  Elec       q    Type
REMARK                         _______ _______ _______ _____ _____    ______ ____
ROOT
ATOM      1  N   UNL     1      -1.279   2.420 -22.947  0.00  0.00    -0.286 N 
ATOM      2  C   UNL     1      -0.881   1.479 -22.144  0.00  0.00    +0.203 A 
ATOM      3  N   UNL     1       0.408   1.362 -22.268  0.00  0.00    -0.231 NA
ATOM      4  C   UNL     1       0.807   2.231 -23.148  0.00  0.00    +0.147 A 
ATOM      5  C   UNL     1       1.985   2.512 -23.623  0.00  0.00    +0.150 A 
ATOM      6  N   UNL     1       2.120   3.447 -24.515  0.00  0.00    -0.219 NA
ATOM      7  C   UNL     1       1.078   4.101 -24.935  0.00  0.00    +0.225 A 
ATOM      8  N   UNL     1      -0.100   3.820 -24.461  0.00  0.00    -0.216 NA
ATOM      9  N   UNL     1       3.027   1.858 -23.203  0.00  0.00    -0.323 N 
ATOM     10  H   UNL     1       2.924   1.150 -22.526  0.00  0.00    +0.148 HD
ATOM     11  C   UNL     1      -0.235   2.885 -23.568  0.00  0.00    +0.167 A 
ENDROOT
BRANCH   1  14
ATOM     12  C4* UNL     1      -4.307   3.449 -23.988  0.00  0.00    +0.177 C 
ATOM     13  O4* UNL     1      -3.092   3.063 -24.238  0.00  0.00    -0.346 OA
ATOM     14  C1* UNL     1      -2.504   2.826 -23.102  0.00  0.00    +0.253 C 
ATOM     15  C2* UNL     1      -3.356   3.066 -22.151  0.00  0.00    +0.195 C 
ATOM     16  C3* UNL     1      -4.471   3.451 -22.698  0.00  0.00    +0.178 C 
BRANCH  15  17
ATOM     17  O2* UNL     1      -3.133   2.942 -20.876  0.00  0.00    -0.385 OA
ATOM     18  H2* UNL     1      -3.892   2.510 -20.456  0.00  0.00    +0.210 HD
ENDBRANCH  15  17
BRANCH  16  19
ATOM     19  O3* UNL     1      -5.558   3.780 -22.066  0.00  0.00    -0.386 OA
ATOM     20  H3* UNL     1      -5.536   3.407 -21.171  0.00  0.00    +0.210 HD
ENDBRANCH  16  19
BRANCH  12  21
ATOM     21  C5* UNL     1      -5.202   3.776 -24.872  0.00  0.00    +0.190 C 
BRANCH  21  22
ATOM     22  O5* UNL     1      -4.866   4.496 -25.901  0.00  0.00    -0.392 OA
ATOM     23  H5* UNL     1      -4.114   5.063 -25.667  0.00  0.00    +0.210 HD
ENDBRANCH  21  22
ENDBRANCH  12  21
ENDBRANCH   1  14
BRANCH   9  24
ATOM     24  C   UNL     1       4.204   2.139 -23.677  0.00  0.00    +0.138 C 
BRANCH  24  25
ATOM     25  C   UNL     1       5.083   2.733 -22.925  0.00  0.00    -0.030 A 
ATOM     26  C   UNL     1       5.206   2.393 -21.676  0.00  0.00    +0.005 A 
ATOM     27  C   UNL     1       6.085   2.987 -20.924  0.00  0.00    +0.000 A 
ATOM     28  C   UNL     1       6.839   3.922 -21.421  0.00  0.00    +0.000 A 
ATOM     29  C   UNL     1       6.716   4.262 -22.670  0.00  0.00    +0.000 A 
ATOM     30  C   UNL     1       5.838   3.668 -23.422  0.00  0.00    +0.005 A 
ENDBRANCH  24  25
ENDBRANCH   9  24
TORSDOF 7
ENDMDL
MODEL 5
REMARK VINA RESULT:    -7.950      1.529      2.476
REMARK INTER + INTRA:         -11.327
REMARK INTER:                 -11.026
REMARK INTRA:                  -0.301
REMARK UNBOUND:                -0.820
REMARK  Name = ZINC000005683197
REMARK  7 active torsions:
REMARK  status: ('A' for Active; 'I' for Inactive)
REMARK    1  A    between atoms: O5*_1  and  C5*_2
REMARK    2  A    between atoms: C5*_2  and  C4*_3
REMARK    3  A    between atoms: C1*_5  and  N_6
REMARK    4  A    between atoms: N_11  and  C_12
REMARK    5  A    between atoms: C_12  and  C_13
REMARK    6  A    between atoms: C2*_23  and  O2*_24
REMARK    7  A    between atoms: C3*_25  and  O3*_26
REMARK                            x       y       z     vdW  Elec       q    Type
REMARK                         _______ _______ _______ _____ _____    ______ ____
ROOT
ATOM      1  N   UNL     1       3.430   4.554 -23.169  0.00  0.00    -0.286 N 
ATOM      2  C   UNL     1       2.720   5.637 -23.277  0.00  0.00    +0.203 A 
ATOM      3  N   UNL     1       1.466   5.295 -23.304  0.00  0.00    -0.231 NA
ATOM      4  C   UNL     1       1.401   3.999 -23.212  0.00  0.00    +0.147 A 
ATOM      5  C   UNL     1       0.394   3.177 -23.194  0.00  0.00    +0.150 A 
ATOM      6  N   UNL     1       0.600   1.898 -23.092  0.00  0.00    -0.219 NA
ATOM      7  C   UNL     1       1.814   1.440 -23.009  0.00  0.00    +0.225 A 
ATOM      8  N   UNL     1       2.821   2.262 -23.027  0.00  0.00    -0.216 NA
ATOM      9  N   UNL     1      -0.820   3.635 -23.277  0.00  0.00    -0.323 N 
ATOM     10  H   UNL     1      -0.976   4.605 -23.354  0.00  0.00    +0.148 HD
ATOM     11  C   UNL     1       2.615   3.541 -23.129  0.00  0.00    +0.167 A 
ENDROOT
BRANCH   1  14
ATOM     12  C4* UNL     1       6.711   3.832 -23.344  0.00  0.00    +0.177 C 
ATOM     13  O4* UNL     1       5.469   3.542 -23.598  0.00  0.00    -0.346 OA
ATOM     14  C1* UNL     1       4.727   4.492 -23.111  0.00  0.00    +0.253 C 
ATOM     15  C2* UNL     1       5.510   5.369 -22.556  0.00  0.00    +0.195 C 
ATOM     16  C3* UNL     1       6.737   4.961 -22.700  0.00  0.00    +0.178 C 
BRANCH  15  17
ATOM     17  O2* UNL     1       5.133   6.461 -21.961  0.00  0.00    -0.385 OA
ATOM     18  H2* UNL     1       5.417   7.228 -22.483  0.00  0.00    +0.210 HD
ENDBRANCH  15  17
BRANCH  16  19
ATOM     19  O3* UNL     1       7.800   5.574 -22.275  0.00  0.00    -0.386 OA
ATOM     20  H3* UNL     1       7.610   5.995 -21.422  0.00  0.00    +0.210 HD
ENDBRANCH  16  19
BRANCH  12  21
ATOM     21  C5* UNL     1       7.745   3.118 -23.676  0.00  0.00    +0.190 C 
BRANCH  21  22
ATOM     22  O5* UNL     1       8.679   3.634 -24.419  0.00  0.00    -0.392 OA
ATOM     23  H5* UNL     1       8.455   4.554 -24.627  0.00  0.00    +0.210 HD
ENDBRANCH  21  22
ENDBRANCH  12  21
ENDBRANCH   1  14
BRANCH   9  24
ATOM     24  C   UNL     1      -1.827   2.814 -23.259  0.00  0.00    +0.138 C 
BRANCH  24  25
ATOM     25  C   UNL     1      -2.929   3.122 -23.878  0.00  0.00    -0.030 A 
ATOM     26  C   UNL     1      -3.972   3.497 -23.199  0.00  0.00    +0.005 A 
ATOM     27  C   UNL     1      -5.073   3.805 -23.818  0.00  0.00    +0.000 A 
ATOM     28  C   UNL     1      -5.131   3.739 -25.114  0.00  0.00    +0.000 A 
ATOM     29  C   UNL     1      -4.087   3.364 -25.794  0.00  0.00    +0.000 A 
ATOM     30  C   UNL     1      -2.986   3.055 -25.175  0.00  0.00    +0.005 A 
ENDBRANCH  24  25
ENDBRANCH   9  24
TORSDOF 7
ENDMDL
MODEL 6
REMARK VINA RESULT:    -7.789      1.807      2.423
REMARK INTER + INTRA:         -11.113
REMARK INTER:                 -10.613
REMARK INTRA:                  -0.501
REMARK UNBOUND:                -0.820
REMARK  Name = ZINC000005683197
REMARK  7 active torsions:
REMARK  status: ('A' for Active; 'I' for Inactive)
REMARK    1  A    between atoms: O5*_1  and  C5*_2
REMARK    2  A    between atoms: C5*_2  and  C4*_3
REMARK    3  A    between atoms: C1*_5  and  N_6
REMARK    4  A    between atoms: N_11  and  C_12
REMARK    5  A    between atoms: C_12  and  C_13
REMARK    6  A    between atoms: C2*_23  and  O2*_24
REMARK    7  A    between atoms: C3*_25  and  O3*_26
REMARK                            x       y       z     vdW  Elec       q    Type
REMARK                         _______ _______ _______ _____ _____    ______ ____
ROOT
ATOM      1  N   UNL     1       5.137   3.774 -23.007  0.00  0.00    -0.286 N 
ATOM      2  C   UNL     1       4.995   2.583 -23.508  0.00  0.00    +0.203 A 
ATOM      3  N   UNL     1       3.775   2.475 -23.946  0.00  0.00    -0.231 NA
ATOM      4  C   UNL     1       3.164   3.599 -23.715  0.00  0.00    +0.147 A 
ATOM      5  C   UNL     1       1.950   3.996 -23.959  0.00  0.00    +0.150 A 
ATOM      6  N   UNL     1       1.578   5.194 -23.622  0.00  0.00    -0.219 NA
ATOM      7  C   UNL     1       2.419   5.997 -23.041  0.00  0.00    +0.225 A 
ATOM      8  N   UNL     1       3.634   5.601 -22.798  0.00  0.00    -0.216 NA
ATOM      9  N   UNL     1       1.108   3.193 -24.539  0.00  0.00    -0.323 N 
ATOM     10  H   UNL     1       1.391   2.284 -24.795  0.00  0.00    +0.148 HD
ATOM     11  C   UNL     1       4.006   4.402 -23.135  0.00  0.00    +0.167 A 
ENDROOT
BRANCH   1  14
ATOM     12  C4* UNL     1       7.987   5.357 -22.176  0.00  0.00    +0.177 C 
ATOM     13  O4* UNL     1       7.018   5.126 -23.012  0.00  0.00    -0.346 OA
ATOM     14  C1* UNL     1       6.220   4.253 -22.471  0.00  0.00    +0.253 C 
ATOM     15  C2* UNL     1       6.696   3.944 -21.302  0.00  0.00    +0.195 C 
ATOM     16  C3* UNL     1       7.788   4.626 -21.119  0.00  0.00    +0.178 C 
BRANCH  15  17
ATOM     17  O2* UNL     1       6.173   3.101 -20.462  0.00  0.00    -0.385 OA
ATOM     18  H2* UNL     1       5.904   2.298 -20.935  0.00  0.00    +0.210 HD
ENDBRANCH  15  17
BRANCH  16  19
ATOM     19  O3* UNL     1       8.548   4.585 -20.065  0.00  0.00    -0.386 OA
ATOM     20  H3* UNL     1       8.190   3.940 -19.435  0.00  0.00    +0.210 HD
ENDBRANCH  16  19
BRANCH  12  21
ATOM     21  C5* UNL     1       8.979   6.174 -22.364  0.00  0.00    +0.190 C 
BRANCH  21  22
ATOM     22  O5* UNL     1       9.062   6.852 -23.471  0.00  0.00    -0.392 OA
ATOM     23  H5* UNL     1       9.335   6.263 -24.191  0.00  0.00    +0.210 HD
ENDBRANCH  21  22
ENDBRANCH  12  21
ENDBRANCH   1  14
BRANCH   9  24
ATOM     24  C   UNL     1      -0.106   3.589 -24.783  0.00  0.00    +0.138 C 
BRANCH  24  25
ATOM     25  C   UNL     1      -1.057   3.325 -23.938  0.00  0.00    -0.030 A 
ATOM     26  C   UNL     1      -0.885   2.411 -23.029  0.00  0.00    +0.005 A 
ATOM     27  C   UNL     1      -1.837   2.147 -22.184  0.00  0.00    +0.000 A 
ATOM     28  C   UNL     1      -2.961   2.797 -22.247  0.00  0.00    +0.000 A 
ATOM     29  C   UNL     1      -3.134   3.711 -23.156  0.00  0.00    +0.000 A 
ATOM     30  C   UNL     1      -2.182   3.975 -24.001  0.00  0.00    +0.005 A 
ENDBRANCH  24  25
ENDBRANCH   9  24
TORSDOF 7
ENDMDL
MODEL 7
REMARK VINA RESULT:    -7.754      1.853      2.165
REMARK INTER + INTRA:         -11.068
REMARK INTER:                 -10.221
REMARK INTRA:                  -0.846
REMARK UNBOUND:                -0.820
REMARK  Name = ZINC000005683197
REMARK  7 active torsions:
REMARK  status: ('A' for Active; 'I' for Inactive)
REMARK    1  A    between atoms: O5*_1  and  C5*_2
REMARK    2  A    between atoms: C5*_2  and  C4*_3
REMARK    3  A    between atoms: C1*_5  and  N_6
REMARK    4  A    between atoms: N_11  and  C_12
REMARK    5  A    between atoms: C_12  and  C_13
REMARK    6  A    between atoms: C2*_23  and  O2*_24
REMARK    7  A    between atoms: C3*_25  and  O3*_26
REMARK                            x       y       z     vdW  Elec       q    Type
REMARK                         _______ _______ _______ _____ _____    ______ ____
ROOT
ATOM      1  N   UNL     1       4.194   3.077 -22.714  0.00  0.00    -0.286 N 
ATOM      2  C   UNL     1       4.056   2.411 -21.607  0.00  0.00    +0.203 A 
ATOM      3  N   UNL     1       2.800   2.098 -21.480  0.00  0.00    -0.231 NA
ATOM      4  C   UNL     1       2.163   2.571 -22.510  0.00  0.00    +0.147 A 
ATOM      5  C   UNL     1       0.909   2.529 -22.852  0.00  0.00    +0.150 A 
ATOM      6  N   UNL     1       0.517   3.092 -23.957  0.00  0.00    -0.219 NA
ATOM      7  C   UNL     1       1.379   3.697 -24.719  0.00  0.00    +0.225 A 
ATOM      8  N   UNL     1       2.633   3.739 -24.377  0.00  0.00    -0.216 NA
ATOM      9  N   UNL     1       0.047   1.924 -22.090  0.00  0.00    -0.323 N 
ATOM     10  H   UNL     1       0.344   1.498 -21.253  0.00  0.00    +0.148 HD
ATOM     11  C   UNL     1       3.024   3.176 -23.273  0.00  0.00    +0.167 A 
ENDROOT
BRANCH   1  14
ATOM     12  C4* UNL     1       7.176   3.714 -24.135  0.00  0.00    +0.177 C 
ATOM     13  O4* UNL     1       6.215   2.893 -23.833  0.00  0.00    -0.346 OA
ATOM     14  C1* UNL     1       5.307   3.559 -23.182  0.00  0.00    +0.253 C 
ATOM     15  C2* UNL     1       5.708   4.791 -23.082  0.00  0.00    +0.195 C 
ATOM     16  C3* UNL     1       6.864   4.887 -23.671  0.00  0.00    +0.178 C 
BRANCH  15  17
ATOM     17  O2* UNL     1       5.067   5.758 -22.495  0.00  0.00    -0.385 OA
ATOM     18  H2* UNL     1       4.161   5.800 -22.839  0.00  0.00    +0.210 HD
ENDBRANCH  15  17
BRANCH  16  19
ATOM     19  O3* UNL     1       7.580   5.967 -23.776  0.00  0.00    -0.386 OA
ATOM     20  H3* UNL     1       7.522   6.474 -22.951  0.00  0.00    +0.210 HD
ENDBRANCH  16  19
BRANCH  12  21
ATOM     21  C5* UNL     1       8.260   3.414 -24.786  0.00  0.00    +0.190 C 
BRANCH  21  22
ATOM     22  O5* UNL     1       8.529   4.011 -25.909  0.00  0.00    -0.392 OA
ATOM     23  H5* UNL     1       8.264   4.942 -25.852  0.00  0.00    +0.210 HD
ENDBRANCH  21  22
ENDBRANCH  12  21
ENDBRANCH   1  14
BRANCH   9  24
ATOM     24  C   UNL     1      -1.206   1.883 -22.431  0.00  0.00    +0.138 C 
BRANCH  24  25
ATOM     25  C   UNL     1      -2.097   2.499 -21.713  0.00  0.00    -0.030 A 
ATOM     26  C   UNL     1      -3.118   1.847 -21.243  0.00  0.00    +0.005 A 
ATOM     27  C   UNL     1      -4.009   2.464 -20.525  0.00  0.00    +0.000 A 
ATOM     28  C   UNL     1      -3.878   3.733 -20.275  0.00  0.00    +0.000 A 
ATOM     29  C   UNL     1      -2.856   4.386 -20.745  0.00  0.00    +0.000 A 
ATOM     30  C   UNL     1      -1.966   3.769 -21.464  0.00  0.00    +0.005 A 
ENDBRANCH  24  25
ENDBRANCH   9  24
TORSDOF 7
ENDMDL
MODEL 8
REMARK VINA RESULT:    -7.745      3.273      8.460
REMARK INTER + INTRA:         -11.056
REMARK INTER:                 -10.074
REMARK INTRA:                  -0.982
REMARK UNBOUND:                -0.820
REMARK  Name = ZINC000005683197
REMARK  7 active torsions:
REMARK  status: ('A' for Active; 'I' for Inactive)
REMARK    1  A    between atoms: O5*_1  and  C5*_2
REMARK    2  A    between atoms: C5*_2  and  C4*_3
REMARK    3  A    between atoms: C1*_5  and  N_6
REMARK    4  A    between atoms: N_11  and  C_12
REMARK    5  A    between atoms: C_12  and  C_13
REMARK    6  A    between atoms: C2*_23  and  O2*_24
REMARK    7  A    between atoms: C3*_25  and  O3*_26
REMARK                            x       y       z     vdW  Elec       q    Type
REMARK                         _______ _______ _______ _____ _____    ______ ____
ROOT
ATOM      1  N   UNL     1       0.994   2.744 -23.349  0.00  0.00    -0.286 N 
ATOM      2  C   UNL     1       1.681   1.643 -23.287  0.00  0.00    +0.203 A 
ATOM      3  N   UNL     1       2.930   1.957 -23.106  0.00  0.00    -0.231 NA
ATOM      4  C   UNL     1       3.014   3.253 -23.056  0.00  0.00    +0.147 A 
ATOM      5  C   UNL     1       4.026   4.054 -22.894  0.00  0.00    +0.150 A 
ATOM      6  N   UNL     1       3.841   5.341 -22.881  0.00  0.00    -0.219 NA
ATOM      7  C   UNL     1       2.645   5.827 -23.031  0.00  0.00    +0.225 A 
ATOM      8  N   UNL     1       1.633   5.026 -23.193  0.00  0.00    -0.216 NA
ATOM      9  N   UNL     1       5.222   3.568 -22.744  0.00  0.00    -0.323 N 
ATOM     10  H   UNL     1       5.362   2.592 -22.754  0.00  0.00    +0.148 HD
ATOM     11  C   UNL     1       1.818   3.740 -23.206  0.00  0.00    +0.167 A 
ENDROOT
BRANCH   1  14
ATOM     12  C4* UNL     1      -2.361   2.885 -23.151  0.00  0.00    +0.177 C 
ATOM     13  O4* UNL     1      -1.196   2.743 -22.593  0.00  0.00    -0.346 OA
ATOM     14  C1* UNL     1      -0.291   2.835 -23.522  0.00  0.00    +0.253 C 
ATOM     15  C2* UNL     1      -0.897   3.034 -24.654  0.00  0.00    +0.195 C 
ATOM     16  C3* UNL     1      -2.177   3.065 -24.426  0.00  0.00    +0.178 C 
BRANCH  15  17
ATOM     17  O2* UNL     1      -0.325   3.176 -25.813  0.00  0.00    -0.385 OA
ATOM     18  H2* UNL     1      -0.913   2.843 -26.508  0.00  0.00    +0.210 HD
ENDBRANCH  15  17
BRANCH  16  19
ATOM     19  O3* UNL     1      -3.108   3.244 -25.315  0.00  0.00    -0.386 OA
ATOM     20  H3* UNL     1      -3.971   3.030 -24.925  0.00  0.00    +0.210 HD
ENDBRANCH  16  19
BRANCH  12  21
ATOM     21  C5* UNL     1      -3.509   2.853 -22.542  0.00  0.00    +0.190 C 
BRANCH  21  22
ATOM     22  O5* UNL     1      -4.506   3.551 -22.999  0.00  0.00    -0.392 OA
ATOM     23  H5* UNL     1      -4.303   3.855 -23.897  0.00  0.00    +0.210 HD
ENDBRANCH  21  22
ENDBRANCH  12  21
ENDBRANCH   1  14
BRANCH   9  24
ATOM     24  C   UNL     1       6.233   4.368 -22.582  0.00  0.00    +0.138 C 
BRANCH  24  25
ATOM     25  C   UNL     1       7.120   4.494 -23.524  0.00  0.00    -0.030 A 
ATOM     26  C   UNL     1       7.480   3.458 -24.221  0.00  0.00    +0.005 A 
ATOM     27  C   UNL     1       8.366   3.585 -25.163  0.00  0.00    +0.000 A 
ATOM     28  C   UNL     1       8.893   4.748 -25.409  0.00  0.00    +0.000 A 
ATOM     29  C   UNL     1       8.533   5.785 -24.711  0.00  0.00    +0.000 A 
ATOM     30  C   UNL     1       7.646   5.658 -23.769  0.00  0.00    +0.005 A 
ENDBRANCH  24  25
ENDBRANCH   9  24
TORSDOF 7
ENDMDL
MODEL 9
REMARK VINA RESULT:    -7.473      3.391      8.207
REMARK INTER + INTRA:         -10.696
REMARK INTER:                  -9.876
REMARK INTRA:                  -0.820
REMARK UNBOUND:                -0.820
REMARK  Name = ZINC000005683197
REMARK  7 active torsions:
REMARK  status: ('A' for Active; 'I' for Inactive)
REMARK    1  A    between atoms: O5*_1  and  C5*_2
REMARK    2  A    between atoms: C5*_2  and  C4*_3
REMARK    3  A    between atoms: C1*_5  and  N_6
REMARK    4  A    between atoms: N_11  and  C_12
REMARK    5  A    between atoms: C_12  and  C_13
REMARK    6  A    between atoms: C2*_23  and  O2*_24
REMARK    7  A    between atoms: C3*_25  and  O3*_26
REMARK                            x       y       z     vdW  Elec       q    Type
REMARK                         _______ _______ _______ _____ _____    ______ ____
ROOT
ATOM      1  N   UNL     1       1.494   2.721 -23.079  0.00  0.00    -0.286 N 
ATOM      2  C   UNL     1       2.315   1.717 -23.166  0.00  0.00    +0.203 A 
ATOM      3  N   UNL     1       3.528   2.189 -23.176  0.00  0.00    -0.231 NA
ATOM      4  C   UNL     1       3.455   3.484 -23.094  0.00  0.00    +0.147 A 
ATOM      5  C   UNL     1       4.370   4.407 -23.067  0.00  0.00    +0.150 A 
ATOM      6  N   UNL     1       4.029   5.659 -22.980  0.00  0.00    -0.219 NA
ATOM      7  C   UNL     1       2.773   5.988 -22.920  0.00  0.00    +0.225 A 
ATOM      8  N   UNL     1       1.857   5.064 -22.947  0.00  0.00    -0.216 NA
ATOM      9  N   UNL     1       5.626   4.078 -23.127  0.00  0.00    -0.323 N 
ATOM     10  H   UNL     1       5.884   3.130 -23.193  0.00  0.00    +0.148 HD
ATOM     11  C   UNL     1       2.198   3.813 -23.034  0.00  0.00    +0.167 A 
ENDROOT
BRANCH   1  14
ATOM     12  C4* UNL     1      -1.777   2.458 -22.339  0.00  0.00    +0.177 C 
ATOM     13  O4* UNL     1      -0.529   2.483 -21.975  0.00  0.00    -0.346 OA
ATOM     14  C1* UNL     1       0.197   2.646 -23.042  0.00  0.00    +0.253 C 
ATOM     15  C2* UNL     1      -0.602   2.723 -24.064  0.00  0.00    +0.195 C 
ATOM     16  C3* UNL     1      -1.823   2.606 -23.629  0.00  0.00    +0.178 C 
BRANCH  15  17
ATOM     17  O2* UNL     1      -0.245   2.886 -25.303  0.00  0.00    -0.385 OA
ATOM     18  H2* UNL     1      -1.035   2.972 -25.859  0.00  0.00    +0.210 HD
ENDBRANCH  15  17
BRANCH  16  19
ATOM     19  O3* UNL     1      -2.898   2.633 -24.358  0.00  0.00    -0.386 OA
ATOM     20  H3* UNL     1      -3.557   3.210 -23.939  0.00  0.00    +0.210 HD
ENDBRANCH  16  19
BRANCH  12  21
ATOM     21  C5* UNL     1      -2.799   2.311 -21.550  0.00  0.00    +0.190 C 
BRANCH  21  22
ATOM     22  O5* UNL     1      -3.755   3.191 -21.554  0.00  0.00    -0.392 OA
ATOM     23  H5* UNL     1      -3.426   4.024 -21.927  0.00  0.00    +0.210 HD
ENDBRANCH  21  22
ENDBRANCH  12  21
ENDBRANCH   1  14
BRANCH   9  24
ATOM     24  C   UNL     1       6.542   5.001 -23.100  0.00  0.00    +0.138 C 
BRANCH  24  25
ATOM     25  C   UNL     1       7.044   5.385 -21.964  0.00  0.00    -0.030 A 
ATOM     26  C   UNL     1       7.071   6.649 -21.660  0.00  0.00    +0.005 A 
ATOM     27  C   UNL     1       7.573   7.033 -20.525  0.00  0.00    +0.000 A 
ATOM     28  C   UNL     1       8.047   6.155 -19.692  0.00  0.00    +0.000 A 
ATOM     29  C   UNL     1       8.019   4.890 -19.996  0.00  0.00    +0.000 A 
ATOM     30  C   UNL     1       7.517   4.506 -21.131  0.00  0.00    +0.005 A 
ENDBRANCH  24  25
ENDBRANCH   9  24
TORSDOF 7
ENDMDL
