MODEL 1
REMARK VINA RESULT:   -11.906      0.000      0.000
REMARK INTER + INTRA:         -11.906
REMARK INTER:                 -11.906
REMARK INTRA:                   0.000
REMARK UNBOUND:                 0.000
REMARK  Name = ZINC000013434330
REMARK  1 active torsions:
REMARK  status: ('A' for Active; 'I' for Inactive)
REMARK    1  A    between atoms: C_1  and  N_2
REMARK                            x       y       z     vdW  Elec       q    Type
REMARK                         _______ _______ _______ _____ _____    ______ ____
ROOT
ATOM      1  C   UNL     1       0.061   1.489 -21.182  0.00  0.00    +0.441 C 
ATOM      2  N   UNL     1       0.526   1.907 -22.322  0.00  0.00    -0.176 N 
ATOM      3  C   UNL     1      -0.269   2.476 -23.180  0.00  0.00    +0.313 A 
ATOM      4  N   UNL     1       0.196   2.893 -24.320  0.00  0.00    -0.253 N 
ATOM      5  C   UNL     1      -0.600   3.462 -25.176  0.00  0.00    +0.136 C 
ATOM      6  C   UNL     1      -1.859   3.614 -24.893  0.00  0.00    +0.060 C 
ATOM      7  C   UNL     1      -2.324   3.196 -23.753  0.00  0.00    -0.005 A 
ATOM      8  C   UNL     1      -3.516   3.226 -23.236  0.00  0.00    +0.004 A 
ATOM      9  C   UNL     1      -4.648   3.683 -23.684  0.00  0.00    +0.010 A 
ATOM     10  C   UNL     1      -5.721   3.590 -22.957  0.00  0.00    +0.001 A 
ATOM     11  C   UNL     1      -5.664   3.039 -21.780  0.00  0.00    +0.002 A 
ATOM     12  C   UNL     1      -4.532   2.582 -21.332  0.00  0.00    +0.026 A 
ATOM     13  C   UNL     1      -3.459   2.676 -22.060  0.00  0.00    +0.047 A 
ATOM     14  N   UNL     1      -2.230   2.305 -21.850  0.00  0.00    -0.348 N 
ATOM     15  H   UNL     1      -1.891   1.860 -21.040  0.00  0.00    +0.166 HD
ATOM     16  C   UNL     1       1.455   2.741 -24.602  0.00  0.00    +0.270 A 
ATOM     17  C   UNL     1       2.250   2.173 -23.745  0.00  0.00    +0.111 A 
ATOM     18  C   UNL     1       3.510   2.021 -24.029  0.00  0.00    +0.020 A 
ATOM     19  C   UNL     1       4.304   1.452 -23.171  0.00  0.00    +0.001 A 
ATOM     20  C   UNL     1       3.840   1.035 -22.032  0.00  0.00    +0.006 A 
ATOM     21  C   UNL     1       2.580   1.187 -21.749  0.00  0.00    +0.079 A 
ATOM     22  O   UNL     1       1.920   3.159 -25.742  0.00  0.00    -0.267 OA
ATOM     23  C   UNL     1      -1.529   2.627 -22.896  0.00  0.00    +0.135 A 
ATOM     24  C   UNL     1       1.785   1.755 -22.605  0.00  0.00    +0.222 A 
ENDROOT
TORSDOF 0
ENDMDL
MODEL 2
REMARK VINA RESULT:   -11.346      1.693      2.839
REMARK INTER + INTRA:         -11.346
REMARK INTER:                 -11.346
REMARK INTRA:                   0.000
REMARK UNBOUND:                 0.000
REMARK  Name = ZINC000013434330
REMARK  1 active torsions:
REMARK  status: ('A' for Active; 'I' for Inactive)
REMARK    1  A    between atoms: C_1  and  N_2
REMARK                            x       y       z     vdW  Elec       q    Type
REMARK                         _______ _______ _______ _____ _____    ______ ____
ROOT
ATOM      1  C   UNL     1       1.120   3.955 -24.754  0.00  0.00    +0.441 C 
ATOM      2  N   UNL     1       1.269   3.246 -23.675  0.00  0.00    -0.176 N 
ATOM      3  C   UNL     1       0.228   2.890 -22.981  0.00  0.00    +0.313 A 
ATOM      4  N   UNL     1       0.376   2.181 -21.902  0.00  0.00    -0.253 N 
ATOM      5  C   UNL     1      -0.665   1.826 -21.209  0.00  0.00    +0.136 C 
ATOM      6  C   UNL     1      -1.855   2.181 -21.595  0.00  0.00    +0.060 C 
ATOM      7  C   UNL     1      -2.003   2.891 -22.675  0.00  0.00    -0.005 A 
ATOM      8  C   UNL     1      -3.059   3.365 -23.265  0.00  0.00    +0.004 A 
ATOM      9  C   UNL     1      -4.325   3.291 -22.976  0.00  0.00    +0.010 A 
ATOM     10  C   UNL     1      -5.202   3.865 -23.745  0.00  0.00    +0.001 A 
ATOM     11  C   UNL     1      -4.814   4.513 -24.804  0.00  0.00    +0.002 A 
ATOM     12  C   UNL     1      -3.548   4.587 -25.092  0.00  0.00    +0.026 A 
ATOM     13  C   UNL     1      -2.671   4.013 -24.322  0.00  0.00    +0.047 A 
ATOM     14  N   UNL     1      -1.375   3.939 -24.386  0.00  0.00    -0.348 N 
ATOM     15  H   UNL     1      -0.806   4.338 -25.083  0.00  0.00    +0.166 HD
ATOM     16  C   UNL     1       1.566   1.827 -21.516  0.00  0.00    +0.270 A 
ATOM     17  C   UNL     1       2.606   2.181 -22.209  0.00  0.00    +0.111 A 
ATOM     18  C   UNL     1       3.797   1.827 -21.823  0.00  0.00    +0.020 A 
ATOM     19  C   UNL     1       4.837   2.182 -22.516  0.00  0.00    +0.001 A 
ATOM     20  C   UNL     1       4.689   2.891 -23.595  0.00  0.00    +0.006 A 
ATOM     21  C   UNL     1       3.499   3.245 -23.981  0.00  0.00    +0.079 A 
ATOM     22  O   UNL     1       1.715   1.117 -20.437  0.00  0.00    -0.267 OA
ATOM     23  C   UNL     1      -0.962   3.245 -23.367  0.00  0.00    +0.135 A 
ATOM     24  C   UNL     1       2.458   2.891 -23.288  0.00  0.00    +0.222 A 
ENDROOT
TORSDOF 0
ENDMDL
MODEL 3
REMARK VINA RESULT:   -11.328      1.403      6.128
REMARK INTER + INTRA:         -11.328
REMARK INTER:                 -11.328
REMARK INTRA:                   0.000
REMARK UNBOUND:                 0.000
REMARK  Name = ZINC000013434330
REMARK  1 active torsions:
REMARK  status: ('A' for Active; 'I' for Inactive)
REMARK    1  A    between atoms: C_1  and  N_2
REMARK                            x       y       z     vdW  Elec       q    Type
REMARK                         _______ _______ _______ _____ _____    ______ ____
ROOT
ATOM      1  C   UNL     1      -1.710   2.243 -21.252  0.00  0.00    +0.441 C 
ATOM      2  N   UNL     1      -2.114   2.756 -22.376  0.00  0.00    -0.176 N 
ATOM      3  C   UNL     1      -1.257   3.005 -23.322  0.00  0.00    +0.313 A 
ATOM      4  N   UNL     1      -1.660   3.518 -24.446  0.00  0.00    -0.253 N 
ATOM      5  C   UNL     1      -0.803   3.767 -25.391  0.00  0.00    +0.136 C 
ATOM      6  C   UNL     1       0.457   3.503 -25.212  0.00  0.00    +0.060 C 
ATOM      7  C   UNL     1       0.860   2.990 -24.088  0.00  0.00    -0.005 A 
ATOM      8  C   UNL     1       2.038   2.640 -23.664  0.00  0.00    +0.004 A 
ATOM      9  C   UNL     1       3.212   2.685 -24.221  0.00  0.00    +0.010 A 
ATOM     10  C   UNL     1       4.257   2.265 -23.572  0.00  0.00    +0.001 A 
ATOM     11  C   UNL     1       4.129   1.799 -22.365  0.00  0.00    +0.002 A 
ATOM     12  C   UNL     1       2.955   1.754 -21.808  0.00  0.00    +0.026 A 
ATOM     13  C   UNL     1       1.910   2.175 -22.458  0.00  0.00    +0.047 A 
ATOM     14  N   UNL     1       0.652   2.237 -22.135  0.00  0.00    -0.348 N 
ATOM     15  H   UNL     1       0.260   1.953 -21.278  0.00  0.00    +0.166 HD
ATOM     16  C   UNL     1      -2.920   3.782 -24.624  0.00  0.00    +0.270 A 
ATOM     17  C   UNL     1      -3.777   3.533 -23.679  0.00  0.00    +0.111 A 
ATOM     18  C   UNL     1      -5.038   3.797 -23.858  0.00  0.00    +0.020 A 
ATOM     19  C   UNL     1      -5.894   3.548 -22.912  0.00  0.00    +0.001 A 
ATOM     20  C   UNL     1      -5.491   3.035 -21.789  0.00  0.00    +0.006 A 
ATOM     21  C   UNL     1      -4.231   2.771 -21.610  0.00  0.00    +0.079 A 
ATOM     22  O   UNL     1      -3.324   4.295 -25.748  0.00  0.00    -0.267 OA
ATOM     23  C   UNL     1       0.004   2.741 -23.143  0.00  0.00    +0.135 A 
ATOM     24  C   UNL     1      -3.374   3.020 -22.555  0.00  0.00    +0.222 A 
ENDROOT
TORSDOF 0
ENDMDL
MODEL 4
REMARK VINA RESULT:   -11.144      1.781      6.624
REMARK INTER + INTRA:         -11.144
REMARK INTER:                 -11.144
REMARK INTRA:                   0.000
REMARK UNBOUND:                 0.000
REMARK  Name = ZINC000013434330
REMARK  1 active torsions:
REMARK  status: ('A' for Active; 'I' for Inactive)
REMARK    1  A    between atoms: C_1  and  N_2
REMARK                            x       y       z     vdW  Elec       q    Type
REMARK                         _______ _______ _______ _____ _____    ______ ____
ROOT
ATOM      1  C   UNL     1      -0.761   3.749 -25.126  0.00  0.00    +0.441 C 
ATOM      2  N   UNL     1      -1.492   3.375 -24.118  0.00  0.00    -0.176 N 
ATOM      3  C   UNL     1      -0.948   2.749 -23.116  0.00  0.00    +0.313 A 
ATOM      4  N   UNL     1      -1.679   2.375 -22.109  0.00  0.00    -0.253 N 
ATOM      5  C   UNL     1      -1.134   1.750 -21.107  0.00  0.00    +0.136 C 
ATOM      6  C   UNL     1       0.142   1.500 -21.114  0.00  0.00    +0.060 C 
ATOM      7  C   UNL     1       0.872   1.875 -22.121  0.00  0.00    -0.005 A 
ATOM      8  C   UNL     1       2.143   1.750 -22.368  0.00  0.00    +0.004 A 
ATOM      9  C   UNL     1       3.112   1.209 -21.692  0.00  0.00    +0.010 A 
ATOM     10  C   UNL     1       4.321   1.215 -22.169  0.00  0.00    +0.001 A 
ATOM     11  C   UNL     1       4.562   1.763 -23.323  0.00  0.00    +0.002 A 
ATOM     12  C   UNL     1       3.593   2.304 -24.000  0.00  0.00    +0.026 A 
ATOM     13  C   UNL     1       2.383   2.298 -23.522  0.00  0.00    +0.047 A 
ATOM     14  N   UNL     1       1.262   2.761 -23.988  0.00  0.00    -0.348 N 
ATOM     15  H   UNL     1       1.141   3.228 -24.846  0.00  0.00    +0.166 HD
ATOM     16  C   UNL     1      -2.954   2.625 -22.103  0.00  0.00    +0.270 A 
ATOM     17  C   UNL     1      -3.499   3.250 -23.104  0.00  0.00    +0.111 A 
ATOM     18  C   UNL     1      -4.775   3.500 -23.099  0.00  0.00    +0.020 A 
ATOM     19  C   UNL     1      -5.319   4.125 -24.100  0.00  0.00    +0.001 A 
ATOM     20  C   UNL     1      -4.588   4.499 -25.107  0.00  0.00    +0.006 A 
ATOM     21  C   UNL     1      -3.312   4.249 -25.113  0.00  0.00    +0.079 A 
ATOM     22  O   UNL     1      -3.686   2.251 -21.096  0.00  0.00    -0.267 OA
ATOM     23  C   UNL     1       0.328   2.499 -23.122  0.00  0.00    +0.135 A 
ATOM     24  C   UNL     1      -2.768   3.625 -24.112  0.00  0.00    +0.222 A 
ENDROOT
TORSDOF 0
ENDMDL
MODEL 5
REMARK VINA RESULT:   -11.137      1.778      6.633
REMARK INTER + INTRA:         -11.137
REMARK INTER:                 -11.137
REMARK INTRA:                   0.000
REMARK UNBOUND:                 0.000
REMARK  Name = ZINC000013434330
REMARK  1 active torsions:
REMARK  status: ('A' for Active; 'I' for Inactive)
REMARK    1  A    between atoms: C_1  and  N_2
REMARK                            x       y       z     vdW  Elec       q    Type
REMARK                         _______ _______ _______ _____ _____    ______ ____
ROOT
ATOM      1  C   UNL     1      -0.864   3.629 -25.287  0.00  0.00    +0.441 C 
ATOM      2  N   UNL     1      -1.554   3.307 -24.234  0.00  0.00    -0.176 N 
ATOM      3  C   UNL     1      -0.965   2.751 -23.216  0.00  0.00    +0.313 A 
ATOM      4  N   UNL     1      -1.655   2.429 -22.162  0.00  0.00    -0.253 N 
ATOM      5  C   UNL     1      -1.066   1.874 -21.145  0.00  0.00    +0.136 C 
ATOM      6  C   UNL     1       0.212   1.641 -21.181  0.00  0.00    +0.060 C 
ATOM      7  C   UNL     1       0.902   1.964 -22.235  0.00  0.00    -0.005 A 
ATOM      8  C   UNL     1       2.165   1.842 -22.518  0.00  0.00    +0.004 A 
ATOM      9  C   UNL     1       3.165   1.356 -21.845  0.00  0.00    +0.010 A 
ATOM     10  C   UNL     1       4.357   1.350 -22.364  0.00  0.00    +0.001 A 
ATOM     11  C   UNL     1       4.549   1.830 -23.557  0.00  0.00    +0.002 A 
ATOM     12  C   UNL     1       3.548   2.316 -24.231  0.00  0.00    +0.026 A 
ATOM     13  C   UNL     1       2.356   2.322 -23.711  0.00  0.00    +0.047 A 
ATOM     14  N   UNL     1       1.212   2.740 -24.164  0.00  0.00    -0.348 N 
ATOM     15  H   UNL     1       1.055   3.152 -25.044  0.00  0.00    +0.166 HD
ATOM     16  C   UNL     1      -2.934   2.661 -22.127  0.00  0.00    +0.270 A 
ATOM     17  C   UNL     1      -3.522   3.216 -23.144  0.00  0.00    +0.111 A 
ATOM     18  C   UNL     1      -4.801   3.449 -23.108  0.00  0.00    +0.020 A 
ATOM     19  C   UNL     1      -5.389   4.004 -24.126  0.00  0.00    +0.001 A 
ATOM     20  C   UNL     1      -4.699   4.326 -25.179  0.00  0.00    +0.006 A 
ATOM     21  C   UNL     1      -3.421   4.094 -25.215  0.00  0.00    +0.079 A 
ATOM     22  O   UNL     1      -3.624   2.339 -21.073  0.00  0.00    -0.267 OA
ATOM     23  C   UNL     1       0.313   2.519 -23.252  0.00  0.00    +0.135 A 
ATOM     24  C   UNL     1      -2.832   3.539 -24.198  0.00  0.00    +0.222 A 
ENDROOT
TORSDOF 0
ENDMDL
MODEL 6
REMARK VINA RESULT:    -9.821      1.430      1.896
REMARK INTER + INTRA:          -9.821
REMARK INTER:                  -9.821
REMARK INTRA:                   0.000
REMARK UNBOUND:                 0.000
REMARK  Name = ZINC000013434330
REMARK  1 active torsions:
REMARK  status: ('A' for Active; 'I' for Inactive)
REMARK    1  A    between atoms: C_1  and  N_2
REMARK                            x       y       z     vdW  Elec       q    Type
REMARK                         _______ _______ _______ _____ _____    ______ ____
ROOT
ATOM      1  C   UNL     1       0.330   1.174 -21.394  0.00  0.00    +0.441 C 
ATOM      2  N   UNL     1       1.240   1.906 -21.965  0.00  0.00    -0.176 N 
ATOM      3  C   UNL     1       0.893   2.857 -22.782  0.00  0.00    +0.313 A 
ATOM      4  N   UNL     1       1.803   3.588 -23.353  0.00  0.00    -0.253 N 
ATOM      5  C   UNL     1       1.455   4.538 -24.169  0.00  0.00    +0.136 C 
ATOM      6  C   UNL     1       0.197   4.757 -24.413  0.00  0.00    +0.060 C 
ATOM      7  C   UNL     1      -0.713   4.026 -23.841  0.00  0.00    -0.005 A 
ATOM      8  C   UNL     1      -2.011   4.038 -23.914  0.00  0.00    +0.004 A 
ATOM      9  C   UNL     1      -2.838   4.786 -24.582  0.00  0.00    +0.010 A 
ATOM     10  C   UNL     1      -4.119   4.591 -24.479  0.00  0.00    +0.001 A 
ATOM     11  C   UNL     1      -4.574   3.649 -23.708  0.00  0.00    +0.002 A 
ATOM     12  C   UNL     1      -3.747   2.901 -23.040  0.00  0.00    +0.026 A 
ATOM     13  C   UNL     1      -2.465   3.096 -23.143  0.00  0.00    +0.047 A 
ATOM     14  N   UNL     1      -1.448   2.501 -22.594  0.00  0.00    -0.348 N 
ATOM     15  H   UNL     1      -1.491   1.747 -21.962  0.00  0.00    +0.166 HD
ATOM     16  C   UNL     1       3.061   3.368 -23.109  0.00  0.00    +0.270 A 
ATOM     17  C   UNL     1       3.408   2.418 -22.293  0.00  0.00    +0.111 A 
ATOM     18  C   UNL     1       4.667   2.199 -22.049  0.00  0.00    +0.020 A 
ATOM     19  C   UNL     1       5.014   1.248 -21.233  0.00  0.00    +0.001 A 
ATOM     20  C   UNL     1       4.104   0.518 -20.662  0.00  0.00    +0.006 A 
ATOM     21  C   UNL     1       2.846   0.737 -20.906  0.00  0.00    +0.079 A 
ATOM     22  O   UNL     1       3.971   4.099 -23.680  0.00  0.00    -0.267 OA
ATOM     23  C   UNL     1      -0.365   3.076 -23.026  0.00  0.00    +0.135 A 
ATOM     24  C   UNL     1       2.498   1.687 -21.721  0.00  0.00    +0.222 A 
ENDROOT
TORSDOF 0
ENDMDL
MODEL 7
REMARK VINA RESULT:    -9.690      2.081      3.403
REMARK INTER + INTRA:          -9.690
REMARK INTER:                  -9.690
REMARK INTRA:                   0.000
REMARK UNBOUND:                 0.000
REMARK  Name = ZINC000013434330
REMARK  1 active torsions:
REMARK  status: ('A' for Active; 'I' for Inactive)
REMARK    1  A    between atoms: C_1  and  N_2
REMARK                            x       y       z     vdW  Elec       q    Type
REMARK                         _______ _______ _______ _____ _____    ______ ____
ROOT
ATOM      1  C   UNL     1       2.342   4.910 -23.909  0.00  0.00    +0.441 C 
ATOM      2  N   UNL     1       2.649   3.878 -23.180  0.00  0.00    -0.176 N 
ATOM      3  C   UNL     1       1.714   3.079 -22.757  0.00  0.00    +0.313 A 
ATOM      4  N   UNL     1       2.021   2.047 -22.028  0.00  0.00    -0.253 N 
ATOM      5  C   UNL     1       1.085   1.249 -21.605  0.00  0.00    +0.136 C 
ATOM      6  C   UNL     1      -0.157   1.484 -21.911  0.00  0.00    +0.060 C 
ATOM      7  C   UNL     1      -0.462   2.516 -22.640  0.00  0.00    -0.005 A 
ATOM      8  C   UNL     1      -1.602   2.965 -23.077  0.00  0.00    +0.004 A 
ATOM      9  C   UNL     1      -2.820   2.533 -22.934  0.00  0.00    +0.010 A 
ATOM     10  C   UNL     1      -3.806   3.177 -23.484  0.00  0.00    +0.001 A 
ATOM     11  C   UNL     1      -3.576   4.252 -24.177  0.00  0.00    +0.002 A 
ATOM     12  C   UNL     1      -2.357   4.683 -24.320  0.00  0.00    +0.026 A 
ATOM     13  C   UNL     1      -1.371   4.039 -23.770  0.00  0.00    +0.047 A 
ATOM     14  N   UNL     1      -0.089   4.255 -23.761  0.00  0.00    -0.348 N 
ATOM     15  H   UNL     1       0.375   5.001 -24.206  0.00  0.00    +0.166 HD
ATOM     16  C   UNL     1       3.262   1.814 -21.723  0.00  0.00    +0.270 A 
ATOM     17  C   UNL     1       4.197   2.611 -22.146  0.00  0.00    +0.111 A 
ATOM     18  C   UNL     1       5.439   2.377 -21.840  0.00  0.00    +0.020 A 
ATOM     19  C   UNL     1       6.374   3.176 -22.263  0.00  0.00    +0.001 A 
ATOM     20  C   UNL     1       6.067   4.207 -22.991  0.00  0.00    +0.006 A 
ATOM     21  C   UNL     1       4.825   4.441 -23.297  0.00  0.00    +0.079 A 
ATOM     22  O   UNL     1       3.569   0.782 -20.994  0.00  0.00    -0.267 OA
ATOM     23  C   UNL     1       0.472   3.314 -23.063  0.00  0.00    +0.135 A 
ATOM     24  C   UNL     1       3.891   3.643 -22.874  0.00  0.00    +0.222 A 
ENDROOT
TORSDOF 0
ENDMDL
MODEL 8
REMARK VINA RESULT:    -8.943      2.877      7.481
REMARK INTER + INTRA:          -8.943
REMARK INTER:                  -8.943
REMARK INTRA:                   0.000
REMARK UNBOUND:                 0.000
REMARK  Name = ZINC000013434330
REMARK  1 active torsions:
REMARK  status: ('A' for Active; 'I' for Inactive)
REMARK    1  A    between atoms: C_1  and  N_2
REMARK                            x       y       z     vdW  Elec       q    Type
REMARK                         _______ _______ _______ _____ _____    ______ ____
ROOT
ATOM      1  C   UNL     1       2.061   5.621 -23.248  0.00  0.00    +0.441 C 
ATOM      2  N   UNL     1       1.733   4.379 -23.050  0.00  0.00    -0.176 N 
ATOM      3  C   UNL     1       2.658   3.476 -22.911  0.00  0.00    +0.313 A 
ATOM      4  N   UNL     1       2.329   2.234 -22.713  0.00  0.00    -0.253 N 
ATOM      5  C   UNL     1       3.255   1.331 -22.574  0.00  0.00    +0.136 C 
ATOM      6  C   UNL     1       4.508   1.671 -22.633  0.00  0.00    +0.060 C 
ATOM      7  C   UNL     1       4.836   2.913 -22.832  0.00  0.00    -0.005 A 
ATOM      8  C   UNL     1       5.991   3.502 -22.931  0.00  0.00    +0.004 A 
ATOM      9  C   UNL     1       7.208   3.049 -22.865  0.00  0.00    +0.010 A 
ATOM     10  C   UNL     1       8.213   3.863 -22.999  0.00  0.00    +0.001 A 
ATOM     11  C   UNL     1       8.001   5.130 -23.198  0.00  0.00    +0.002 A 
ATOM     12  C   UNL     1       6.784   5.583 -23.265  0.00  0.00    +0.026 A 
ATOM     13  C   UNL     1       5.779   4.769 -23.131  0.00  0.00    +0.047 A 
ATOM     14  N   UNL     1       4.494   4.962 -23.155  0.00  0.00    -0.348 N 
ATOM     15  H   UNL     1       4.042   5.826 -23.290  0.00  0.00    +0.166 HD
ATOM     16  C   UNL     1       1.076   1.895 -22.653  0.00  0.00    +0.270 A 
ATOM     17  C   UNL     1       0.151   2.797 -22.792  0.00  0.00    +0.111 A 
ATOM     18  C   UNL     1      -1.103   2.458 -22.732  0.00  0.00    +0.020 A 
ATOM     19  C   UNL     1      -2.027   3.361 -22.871  0.00  0.00    +0.001 A 
ATOM     20  C   UNL     1      -1.699   4.602 -23.069  0.00  0.00    +0.006 A 
ATOM     21  C   UNL     1      -0.445   4.942 -23.129  0.00  0.00    +0.079 A 
ATOM     22  O   UNL     1       0.747   0.653 -22.454  0.00  0.00    -0.267 OA
ATOM     23  C   UNL     1       3.911   3.815 -22.971  0.00  0.00    +0.135 A 
ATOM     24  C   UNL     1       0.479   4.040 -22.990  0.00  0.00    +0.222 A 
ENDROOT
TORSDOF 0
ENDMDL
