MODEL 1
REMARK VINA RESULT:   -10.393      0.000      0.000
REMARK INTER + INTRA:          -9.529
REMARK INTER:                 -10.801
REMARK INTRA:                   1.272
REMARK UNBOUND:                 3.295
REMARK  Name = ZINC000008382395
REMARK  4 active torsions:
REMARK  status: ('A' for Active; 'I' for Inactive)
REMARK    1  A    between atoms: C_2  and  C_27
REMARK    2  A    between atoms: N_3  and  C_4
REMARK    3  A    between atoms: C_4  and  C_11
REMARK    4  A    between atoms: C_5  and  C_6
REMARK                            x       y       z     vdW  Elec       q    Type
REMARK                         _______ _______ _______ _____ _____    ______ ____
ROOT
ATOM      1  C   UNL     1       2.729   4.757 -22.998  0.00  0.00    +0.097 C 
ATOM      2  C   UNL     1       3.339   3.702 -22.466  0.00  0.00    +0.043 C 
ENDROOT
BRANCH   1   3
ATOM      3  C   UNL     1       1.858   4.610 -24.002  0.00  0.00    +0.261 C 
ATOM      4  N   UNL     1       0.540   4.436 -23.749  0.00  0.00    -0.296 N 
ATOM      5  C   UNL     1      -0.385   4.282 -24.726  0.00  0.00    +0.117 C 
ATOM      6  C   UNL     1      -1.592   4.128 -24.266  0.00  0.00    +0.054 C 
ATOM      7  C   UNL     1      -1.625   4.150 -23.317  0.00  0.00    +0.018 C 
ATOM      8  C   UNL     1      -1.241   4.227 -22.449  0.00  0.00    +0.027 C 
ATOM      9  C   UNL     1      -2.283   4.099 -21.873  0.00  0.00    +0.130 C 
ATOM     10  N   UNL     1      -3.363   3.920 -22.993  0.00  0.00    -0.312 N 
ATOM     11  C   UNL     1      -4.624   3.750 -22.869  0.00  0.00    +0.251 A 
ATOM     12  O   UNL     1      -5.161   3.708 -21.678  0.00  0.00    -0.268 OA
ATOM     13  C   UNL     1      -5.387   3.615 -23.951  0.00  0.00    +0.070 A 
ATOM     14  C   UNL     1      -4.858   3.654 -25.201  0.00  0.00    +0.007 A 
ATOM     15  C   UNL     1      -3.556   3.827 -25.406  0.00  0.00    +0.022 A 
ATOM     16  C   UNL     1      -2.774   3.962 -24.403  0.00  0.00    +0.027 A 
ATOM     17  C   UNL     1       0.047   4.403 -22.489  0.00  0.00    +0.113 C 
ATOM     18  O   UNL     1       2.288   4.636 -25.233  0.00  0.00    -0.269 OA
ENDBRANCH   1   3
BRANCH   2  19
ATOM     19  C   UNL     1       3.099   2.495 -22.915  0.00  0.00    +0.014 A 
ATOM     20  C   UNL     1       2.265   1.645 -22.383  0.00  0.00    +0.015 A 
ATOM     21  C   UNL     1       2.292   0.554 -23.099  0.00  0.00    +0.008 A 
ATOM     22  C   UNL     1       3.141   0.731 -24.072  0.00  0.00    +0.046 A 
ATOM     23  S   UNL     1       3.641   1.931 -23.958  0.00  0.00    -0.097 S 
ENDBRANCH   2  19
BRANCH   1  26
ATOM     24  O   UNL     1       5.199   5.633 -22.939  0.00  0.00    -0.270 OA
ATOM     25  C   UNL     1       4.224   6.383 -22.500  0.00  0.00    +0.249 C 
ATOM     26  N   UNL     1       2.989   5.945 -22.529  0.00  0.00    -0.277 N 
ATOM     27  H   UNL     1       2.257   6.513 -22.197  0.00  0.00    +0.155 HD
BRANCH  25  28
ATOM     28  C   UNL     1       4.475   7.571 -22.030  0.00  0.00    +0.051 A 
ATOM     29  C   UNL     1       3.752   8.583 -22.422  0.00  0.00    +0.014 A 
ATOM     30  C   UNL     1       3.998   9.780 -21.955  0.00  0.00    +0.001 A 
ATOM     31  C   UNL     1       4.966   9.957 -21.098  0.00  0.00    +0.001 A 
ATOM     32  C   UNL     1       5.689   8.945 -20.706  0.00  0.00    +0.016 A 
ATOM     33  C   UNL     1       5.443   7.748 -21.173  0.00  0.00    +0.030 A 
ATOM     34 BR   UNL     1       6.165   6.735 -20.782  0.00  0.00    -0.050 Br
ENDBRANCH  25  28
ENDBRANCH   1  26
TORSDOF 4
ENDMDL
MODEL 2
REMARK VINA RESULT:    -8.878      1.492      2.036
REMARK INTER + INTRA:          -7.659
REMARK INTER:                  -9.008
REMARK INTRA:                   1.349
REMARK UNBOUND:                 3.295
REMARK  Name = ZINC000008382395
REMARK  4 active torsions:
REMARK  status: ('A' for Active; 'I' for Inactive)
REMARK    1  A    between atoms: C_2  and  C_27
REMARK    2  A    between atoms: N_3  and  C_4
REMARK    3  A    between atoms: C_4  and  C_11
REMARK    4  A    between atoms: C_5  and  C_6
REMARK                            x       y       z     vdW  Elec       q    Type
REMARK                         _______ _______ _______ _____ _____    ______ ____
ROOT
ATOM      1  C   UNL     1       3.120   4.085 -23.214  0.00  0.00    +0.097 C 
ATOM      2  C   UNL     1       3.645   3.481 -24.276  0.00  0.00    +0.043 C 
ENDROOT
BRANCH   1   3
ATOM      3  C   UNL     1       2.232   3.453 -22.437  0.00  0.00    +0.261 C 
ATOM      4  N   UNL     1       0.905   3.582 -22.666  0.00  0.00    -0.296 N 
ATOM      5  C   UNL     1      -0.037   2.967 -21.913  0.00  0.00    +0.117 C 
ATOM      6  C   UNL     1      -1.251   3.224 -22.303  0.00  0.00    +0.054 C 
ATOM      7  C   UNL     1      -1.276   3.804 -23.056  0.00  0.00    +0.018 C 
ATOM      8  C   UNL     1      -0.881   4.342 -23.735  0.00  0.00    +0.027 C 
ATOM      9  C   UNL     1      -1.927   4.674 -24.213  0.00  0.00    +0.130 C 
ATOM     10  N   UNL     1      -3.027   3.968 -23.350  0.00  0.00    -0.312 N 
ATOM     11  C   UNL     1      -4.299   4.019 -23.476  0.00  0.00    +0.251 A 
ATOM     12  O   UNL     1      -4.830   4.736 -24.430  0.00  0.00    -0.268 OA
ATOM     13  C   UNL     1      -5.077   3.342 -22.635  0.00  0.00    +0.070 A 
ATOM     14  C   UNL     1      -4.555   2.588 -21.634  0.00  0.00    +0.007 A 
ATOM     15  C   UNL     1      -3.243   2.489 -21.444  0.00  0.00    +0.022 A 
ATOM     16  C   UNL     1      -2.445   3.117 -22.220  0.00  0.00    +0.027 A 
ATOM     17  C   UNL     1       0.419   4.343 -23.674  0.00  0.00    +0.113 C 
ATOM     18  O   UNL     1       2.655   2.709 -21.453  0.00  0.00    -0.269 OA
ENDBRANCH   1   3
BRANCH   2  19
ATOM     19  C   UNL     1       3.304   2.255 -24.585  0.00  0.00    +0.014 A 
ATOM     20  C   UNL     1       2.381   1.923 -25.444  0.00  0.00    +0.015 A 
ATOM     21  C   UNL     1       2.323   0.620 -25.488  0.00  0.00    +0.008 A 
ATOM     22  C   UNL     1       3.208   0.148 -24.657  0.00  0.00    +0.046 A 
ATOM     23  S   UNL     1       3.815   1.159 -24.097  0.00  0.00    -0.097 S 
ENDBRANCH   2  19
BRANCH   1  26
ATOM     24  O   UNL     1       5.459   4.545 -22.123  0.00  0.00    -0.270 OA
ATOM     25  C   UNL     1       4.649   5.536 -22.387  0.00  0.00    +0.249 C 
ATOM     26  N   UNL     1       3.479   5.305 -22.933  0.00  0.00    -0.277 N 
ATOM     27  H   UNL     1       2.872   6.054 -23.130  0.00  0.00    +0.155 HD
BRANCH  25  28
ATOM     28  C   UNL     1       5.001   6.758 -22.110  0.00  0.00    +0.051 A 
ATOM     29  C   UNL     1       4.083   7.647 -21.848  0.00  0.00    +0.014 A 
ATOM     30  C   UNL     1       4.429   8.877 -21.569  0.00  0.00    +0.001 A 
ATOM     31  C   UNL     1       5.690   9.210 -21.552  0.00  0.00    +0.001 A 
ATOM     32  C   UNL     1       6.607   8.322 -21.813  0.00  0.00    +0.016 A 
ATOM     33  C   UNL     1       6.262   7.091 -22.093  0.00  0.00    +0.030 A 
ATOM     34 BR   UNL     1       7.178   6.201 -22.355  0.00  0.00    -0.050 Br
ENDBRANCH  25  28
ENDBRANCH   1  26
TORSDOF 4
ENDMDL
MODEL 3
REMARK VINA RESULT:    -8.711      3.150      8.137
REMARK INTER + INTRA:          -7.453
REMARK INTER:                  -9.268
REMARK INTRA:                   1.815
REMARK UNBOUND:                 3.295
REMARK  Name = ZINC000008382395
REMARK  4 active torsions:
REMARK  status: ('A' for Active; 'I' for Inactive)
REMARK    1  A    between atoms: C_2  and  C_27
REMARK    2  A    between atoms: N_3  and  C_4
REMARK    3  A    between atoms: C_4  and  C_11
REMARK    4  A    between atoms: C_5  and  C_6
REMARK                            x       y       z     vdW  Elec       q    Type
REMARK                         _______ _______ _______ _____ _____    ______ ____
ROOT
ATOM      1  C   UNL     1       1.513   2.471 -23.323  0.00  0.00    +0.097 C 
ATOM      2  C   UNL     1       1.361   2.010 -22.085  0.00  0.00    +0.043 C 
ENDROOT
BRANCH   1   3
ATOM      3  C   UNL     1       2.670   2.310 -23.976  0.00  0.00    +0.261 C 
ATOM      4  N   UNL     1       3.735   3.095 -23.691  0.00  0.00    -0.296 N 
ATOM      5  C   UNL     1       4.928   2.976 -24.319  0.00  0.00    +0.117 C 
ATOM      6  C   UNL     1       5.816   3.827 -23.894  0.00  0.00    +0.054 C 
ATOM      7  C   UNL     1       5.478   4.393 -23.210  0.00  0.00    +0.018 C 
ATOM      8  C   UNL     1       4.804   4.711 -22.617  0.00  0.00    +0.027 C 
ATOM      9  C   UNL     1       5.501   5.549 -22.121  0.00  0.00    +0.130 C 
ATOM     10  N   UNL     1       6.887   5.422 -22.840  0.00  0.00    -0.312 N 
ATOM     11  C   UNL     1       7.952   6.104 -22.652  0.00  0.00    +0.251 A 
ATOM     12  O   UNL     1       7.965   7.054 -21.755  0.00  0.00    -0.268 OA
ATOM     13  C   UNL     1       9.042   5.846 -23.369  0.00  0.00    +0.070 A 
ATOM     14  C   UNL     1       9.059   4.866 -24.308  0.00  0.00    +0.007 A 
ATOM     15  C   UNL     1       7.989   4.117 -24.558  0.00  0.00    +0.022 A 
ATOM     16  C   UNL     1       6.911   4.319 -23.899  0.00  0.00    +0.027 A 
ATOM     17  C   UNL     1       3.683   4.064 -22.747  0.00  0.00    +0.113 C 
ATOM     18  O   UNL     1       2.766   1.389 -24.894  0.00  0.00    -0.269 OA
ENDBRANCH   1   3
BRANCH   2  19
ATOM     19  C   UNL     1       2.341   1.387 -21.479  0.00  0.00    +0.014 A 
ATOM     20  C   UNL     1       3.012   0.381 -21.966  0.00  0.00    +0.015 A 
ATOM     21  C   UNL     1       3.905   0.027 -21.083  0.00  0.00    +0.008 A 
ATOM     22  C   UNL     1       3.785   0.814 -20.051  0.00  0.00    +0.046 A 
ATOM     23  S   UNL     1       2.818   1.656 -20.295  0.00  0.00    -0.097 S 
ENDBRANCH   2  19
BRANCH   1  26
ATOM     24  O   UNL     1      -0.894   1.437 -23.241  0.00  0.00    -0.270 OA
ATOM     25  C   UNL     1      -0.684   2.569 -23.859  0.00  0.00    +0.249 C 
ATOM     26  N   UNL     1       0.520   3.086 -23.900  0.00  0.00    -0.277 N 
ATOM     27  H   UNL     1       0.674   3.939 -24.366  0.00  0.00    +0.155 HD
BRANCH  25  28
ATOM     28  C   UNL     1      -1.672   3.190 -24.437  0.00  0.00    +0.051 A 
ATOM     29  C   UNL     1      -1.832   3.080 -25.727  0.00  0.00    +0.014 A 
ATOM     30  C   UNL     1      -2.822   3.700 -26.315  0.00  0.00    +0.001 A 
ATOM     31  C   UNL     1      -3.645   4.426 -25.611  0.00  0.00    +0.001 A 
ATOM     32  C   UNL     1      -3.485   4.536 -24.322  0.00  0.00    +0.016 A 
ATOM     33  C   UNL     1      -2.495   3.916 -23.733  0.00  0.00    +0.030 A 
ATOM     34 BR   UNL     1      -2.333   4.024 -22.443  0.00  0.00    -0.050 Br
ENDBRANCH  25  28
ENDBRANCH   1  26
TORSDOF 4
ENDMDL
