MODEL 1
REMARK VINA RESULT:   -10.708      0.000      0.000
REMARK INTER + INTRA:         -13.898
REMARK INTER:                 -13.207
REMARK INTRA:                  -0.691
REMARK UNBOUND:                -0.060
REMARK  Name = ZINC000016952753
REMARK  8 active torsions:
REMARK  status: ('A' for Active; 'I' for Inactive)
REMARK    1  A    between atoms: C_1  and  O_2
REMARK    2  A    between atoms: O_2  and  C_3
REMARK    3  A    between atoms: C_5  and  C_6
REMARK    4  A    between atoms: C_15  and  C_16
REMARK    5  A    between atoms: C_19  and  O_20
REMARK    6  A    between atoms: C_21  and  O_22
REMARK    7  A    between atoms: O_22  and  C_23
REMARK    8  A    between atoms: C_27  and  O_28
REMARK                            x       y       z     vdW  Elec       q    Type
REMARK                         _______ _______ _______ _____ _____    ______ ____
ROOT
ATOM      1  C   UNL     1       1.933   3.393 -22.778  0.00  0.00    +0.221 C 
ATOM      2  O   UNL     1       1.439   4.578 -22.982  0.00  0.00    -0.455 OA
ATOM      3  C   UNL     1       0.144   4.492 -22.916  0.00  0.00    +0.316 C 
ATOM      4  C   UNL     1      -0.164   3.253 -22.671  0.00  0.00    +0.160 C 
ATOM      5  C   UNL     1      -1.155   2.434 -22.478  0.00  0.00    +0.221 C 
ATOM      6  O   UNL     1      -0.662   1.249 -22.274  0.00  0.00    -0.455 OA
ATOM      7  C   UNL     1       0.633   1.335 -22.340  0.00  0.00    +0.316 C 
ATOM      8  O   UNL     1       1.473   0.355 -22.187  0.00  0.00    -0.250 OA
ATOM      9  O   UNL     1      -0.696   5.472 -23.069  0.00  0.00    -0.250 OA
ATOM     10  C   UNL     1       0.942   2.574 -22.585  0.00  0.00    +0.160 C 
ENDROOT
BRANCH   5  11
ATOM     11  C   UNL     1      -2.417   2.745 -22.489  0.00  0.00    -0.003 A 
ATOM     12  C   UNL     1      -3.102   2.717 -21.384  0.00  0.00    +0.011 A 
ATOM     13  C   UNL     1      -4.365   3.029 -21.395  0.00  0.00    +0.049 A 
ATOM     14  C   UNL     1      -4.940   3.369 -22.510  0.00  0.00    +0.158 A 
ATOM     15  C   UNL     1      -4.255   3.398 -23.614  0.00  0.00    +0.162 A 
ATOM     16  C   UNL     1      -2.993   3.086 -23.603  0.00  0.00    +0.056 A 
BRANCH  15  17
ATOM     17  O   UNL     1      -4.831   3.739 -24.729  0.00  0.00    -0.491 OA
ATOM     18  C   UNL     1      -4.320   3.363 -25.864  0.00  0.00    +0.277 C 
ENDBRANCH  15  17
BRANCH  14  19
ATOM     19  O   UNL     1      -6.203   3.682 -22.521  0.00  0.00    -0.503 OA
ATOM     20  H   UNL     1      -6.506   4.392 -23.052  0.00  0.00    +0.292 HD
ENDBRANCH  14  19
ENDBRANCH   5  11
BRANCH   1  23
ATOM     21  C   UNL     1       4.947   2.079 -21.771  0.00  0.00    +0.162 A 
ATOM     22  C   UNL     1       3.685   2.391 -21.782  0.00  0.00    +0.056 A 
ATOM     23  C   UNL     1       3.194   3.082 -22.767  0.00  0.00    -0.003 A 
ATOM     24  C   UNL     1       3.965   3.461 -23.743  0.00  0.00    +0.011 A 
ATOM     25  C   UNL     1       5.228   3.148 -23.732  0.00  0.00    +0.049 A 
ATOM     26  C   UNL     1       5.718   2.458 -22.746  0.00  0.00    +0.158 A 
BRANCH  21  28
ATOM     27  C   UNL     1       4.997   0.187 -20.551  0.00  0.00    +0.277 C 
ATOM     28  O   UNL     1       5.437   1.388 -20.784  0.00  0.00    -0.491 OA
ENDBRANCH  21  28
BRANCH  26  29
ATOM     29  O   UNL     1       6.980   2.145 -22.736  0.00  0.00    -0.503 OA
ATOM     30  H   UNL     1       7.272   1.386 -22.270  0.00  0.00    +0.292 HD
ENDBRANCH  26  29
ENDBRANCH   1  23
TORSDOF 6
ENDMDL
MODEL 2
REMARK VINA RESULT:   -10.705      0.093      8.176
REMARK INTER + INTRA:         -13.894
REMARK INTER:                 -13.256
REMARK INTRA:                  -0.638
REMARK UNBOUND:                -0.060
REMARK  Name = ZINC000016952753
REMARK  8 active torsions:
REMARK  status: ('A' for Active; 'I' for Inactive)
REMARK    1  A    between atoms: C_1  and  O_2
REMARK    2  A    between atoms: O_2  and  C_3
REMARK    3  A    between atoms: C_5  and  C_6
REMARK    4  A    between atoms: C_15  and  C_16
REMARK    5  A    between atoms: C_19  and  O_20
REMARK    6  A    between atoms: C_21  and  O_22
REMARK    7  A    between atoms: O_22  and  C_23
REMARK    8  A    between atoms: C_27  and  O_28
REMARK                            x       y       z     vdW  Elec       q    Type
REMARK                         _______ _______ _______ _____ _____    ______ ____
ROOT
ATOM      1  C   UNL     1      -1.242   2.441 -22.461  0.00  0.00    +0.221 C 
ATOM      2  O   UNL     1      -0.748   1.263 -22.222  0.00  0.00    -0.455 OA
ATOM      3  C   UNL     1       0.547   1.347 -22.295  0.00  0.00    +0.316 C 
ATOM      4  C   UNL     1       0.855   2.577 -22.579  0.00  0.00    +0.160 C 
ATOM      5  C   UNL     1       1.846   3.390 -22.800  0.00  0.00    +0.221 C 
ATOM      6  O   UNL     1       1.352   4.568 -23.038  0.00  0.00    -0.455 OA
ATOM      7  C   UNL     1       0.057   4.485 -22.965  0.00  0.00    +0.316 C 
ATOM      8  O   UNL     1      -0.783   5.460 -23.145  0.00  0.00    -0.250 OA
ATOM      9  O   UNL     1       1.387   0.371 -22.116  0.00  0.00    -0.250 OA
ATOM     10  C   UNL     1      -0.251   3.254 -22.681  0.00  0.00    +0.160 C 
ENDROOT
BRANCH   5  11
ATOM     11  C   UNL     1       3.107   3.078 -22.784  0.00  0.00    -0.003 A 
ATOM     12  C   UNL     1       3.882   3.456 -23.757  0.00  0.00    +0.011 A 
ATOM     13  C   UNL     1       5.144   3.144 -23.741  0.00  0.00    +0.049 A 
ATOM     14  C   UNL     1       5.631   2.453 -22.753  0.00  0.00    +0.158 A 
ATOM     15  C   UNL     1       4.855   2.075 -21.780  0.00  0.00    +0.162 A 
ATOM     16  C   UNL     1       3.594   2.388 -21.796  0.00  0.00    +0.056 A 
BRANCH  15  17
ATOM     17  O   UNL     1       5.342   1.385 -20.791  0.00  0.00    -0.491 OA
ATOM     18  C   UNL     1       4.924   0.172 -20.579  0.00  0.00    +0.277 C 
ENDBRANCH  15  17
BRANCH  14  19
ATOM     19  O   UNL     1       6.893   2.141 -22.737  0.00  0.00    -0.503 OA
ATOM     20  H   UNL     1       7.220   1.482 -23.318  0.00  0.00    +0.292 HD
ENDBRANCH  14  19
ENDBRANCH   5  11
BRANCH   1  23
ATOM     21  C   UNL     1      -4.342   3.383 -23.613  0.00  0.00    +0.162 A 
ATOM     22  C   UNL     1      -3.080   3.071 -23.597  0.00  0.00    +0.056 A 
ATOM     23  C   UNL     1      -2.503   2.753 -22.476  0.00  0.00    -0.003 A 
ATOM     24  C   UNL     1      -3.187   2.748 -21.371  0.00  0.00    +0.011 A 
ATOM     25  C   UNL     1      -4.450   3.060 -21.387  0.00  0.00    +0.049 A 
ATOM     26  C   UNL     1      -5.026   3.378 -22.508  0.00  0.00    +0.158 A 
BRANCH  21  28
ATOM     27  C   UNL     1      -4.410   3.301 -25.862  0.00  0.00    +0.277 C 
ATOM     28  O   UNL     1      -4.919   3.701 -24.734  0.00  0.00    -0.491 OA
ENDBRANCH  21  28
BRANCH  26  29
ATOM     29  O   UNL     1      -6.289   3.690 -22.524  0.00  0.00    -0.503 OA
ATOM     30  H   UNL     1      -6.558   4.539 -22.814  0.00  0.00    +0.292 HD
ENDBRANCH  26  29
ENDBRANCH   1  23
TORSDOF 6
ENDMDL
MODEL 3
REMARK VINA RESULT:   -10.295      1.210      8.198
REMARK INTER + INTRA:         -13.365
REMARK INTER:                 -12.575
REMARK INTRA:                  -0.790
REMARK UNBOUND:                -0.060
REMARK  Name = ZINC000016952753
REMARK  8 active torsions:
REMARK  status: ('A' for Active; 'I' for Inactive)
REMARK    1  A    between atoms: C_1  and  O_2
REMARK    2  A    between atoms: O_2  and  C_3
REMARK    3  A    between atoms: C_5  and  C_6
REMARK    4  A    between atoms: C_15  and  C_16
REMARK    5  A    between atoms: C_19  and  O_20
REMARK    6  A    between atoms: C_21  and  O_22
REMARK    7  A    between atoms: O_22  and  C_23
REMARK    8  A    between atoms: C_27  and  O_28
REMARK                            x       y       z     vdW  Elec       q    Type
REMARK                         _______ _______ _______ _____ _____    ______ ____
ROOT
ATOM      1  C   UNL     1      -1.197   2.627 -22.618  0.00  0.00    +0.221 C 
ATOM      2  O   UNL     1      -0.621   1.486 -22.382  0.00  0.00    -0.455 OA
ATOM      3  C   UNL     1       0.658   1.638 -22.549  0.00  0.00    +0.316 C 
ATOM      4  C   UNL     1       0.876   2.874 -22.890  0.00  0.00    +0.160 C 
ATOM      5  C   UNL     1       1.801   3.731 -23.204  0.00  0.00    +0.221 C 
ATOM      6  O   UNL     1       1.225   4.872 -23.441  0.00  0.00    -0.455 OA
ATOM      7  C   UNL     1      -0.054   4.721 -23.273  0.00  0.00    +0.316 C 
ATOM      8  O   UNL     1      -0.959   5.642 -23.420  0.00  0.00    -0.250 OA
ATOM      9  O   UNL     1       1.563   0.716 -22.402  0.00  0.00    -0.250 OA
ATOM     10  C   UNL     1      -0.272   3.485 -22.932  0.00  0.00    +0.160 C 
ENDROOT
BRANCH   5  11
ATOM     11  C   UNL     1       3.075   3.490 -23.269  0.00  0.00    -0.003 A 
ATOM     12  C   UNL     1       3.517   2.529 -24.025  0.00  0.00    +0.011 A 
ATOM     13  C   UNL     1       4.793   2.287 -24.091  0.00  0.00    +0.049 A 
ATOM     14  C   UNL     1       5.627   3.006 -23.399  0.00  0.00    +0.158 A 
ATOM     15  C   UNL     1       5.185   3.967 -22.643  0.00  0.00    +0.162 A 
ATOM     16  C   UNL     1       3.910   4.208 -22.578  0.00  0.00    +0.056 A 
BRANCH  15  17
ATOM     17  O   UNL     1       6.019   4.686 -21.951  0.00  0.00    -0.491 OA
ATOM     18  C   UNL     1       6.169   5.948 -22.224  0.00  0.00    +0.277 C 
ENDBRANCH  15  17
BRANCH  14  19
ATOM     19  O   UNL     1       6.903   2.764 -23.464  0.00  0.00    -0.503 OA
ATOM     20  H   UNL     1       7.218   1.884 -23.393  0.00  0.00    +0.292 HD
ENDBRANCH  14  19
ENDBRANCH   5  11
BRANCH   1  23
ATOM     21  C   UNL     1      -4.417   3.365 -23.573  0.00  0.00    +0.162 A 
ATOM     22  C   UNL     1      -3.142   3.123 -23.638  0.00  0.00    +0.056 A 
ATOM     23  C   UNL     1      -2.472   2.869 -22.553  0.00  0.00    -0.003 A 
ATOM     24  C   UNL     1      -3.077   2.857 -21.403  0.00  0.00    +0.011 A 
ATOM     25  C   UNL     1      -4.354   3.099 -21.338  0.00  0.00    +0.049 A 
ATOM     26  C   UNL     1      -5.023   3.353 -22.423  0.00  0.00    +0.158 A 
BRANCH  21  28
ATOM     27  C   UNL     1      -4.513   3.497 -25.819  0.00  0.00    +0.277 C 
ATOM     28  O   UNL     1      -5.087   3.619 -24.658  0.00  0.00    -0.491 OA
ENDBRANCH  21  28
BRANCH  26  29
ATOM     29  O   UNL     1      -6.299   3.595 -22.358  0.00  0.00    -0.503 OA
ATOM     30  H   UNL     1      -6.903   3.059 -22.833  0.00  0.00    +0.292 HD
ENDBRANCH  26  29
ENDBRANCH   1  23
TORSDOF 6
ENDMDL
MODEL 4
REMARK VINA RESULT:   -10.137      0.974      2.144
REMARK INTER + INTRA:         -13.160
REMARK INTER:                 -12.398
REMARK INTRA:                  -0.762
REMARK UNBOUND:                -0.060
REMARK  Name = ZINC000016952753
REMARK  8 active torsions:
REMARK  status: ('A' for Active; 'I' for Inactive)
REMARK    1  A    between atoms: C_1  and  O_2
REMARK    2  A    between atoms: O_2  and  C_3
REMARK    3  A    between atoms: C_5  and  C_6
REMARK    4  A    between atoms: C_15  and  C_16
REMARK    5  A    between atoms: C_19  and  O_20
REMARK    6  A    between atoms: C_21  and  O_22
REMARK    7  A    between atoms: O_22  and  C_23
REMARK    8  A    between atoms: C_27  and  O_28
REMARK                            x       y       z     vdW  Elec       q    Type
REMARK                         _______ _______ _______ _____ _____    ______ ____
ROOT
ATOM      1  C   UNL     1       2.003   2.408 -22.573  0.00  0.00    +0.221 C 
ATOM      2  O   UNL     1       1.345   1.365 -22.165  0.00  0.00    -0.455 OA
ATOM      3  C   UNL     1       0.081   1.664 -22.155  0.00  0.00    +0.316 C 
ATOM      4  C   UNL     1      -0.045   2.893 -22.558  0.00  0.00    +0.160 C 
ATOM      5  C   UNL     1      -0.904   3.839 -22.801  0.00  0.00    +0.221 C 
ATOM      6  O   UNL     1      -0.246   4.882 -23.209  0.00  0.00    -0.455 OA
ATOM      7  C   UNL     1       1.018   4.583 -23.219  0.00  0.00    +0.316 C 
ATOM      8  O   UNL     1       1.988   5.375 -23.570  0.00  0.00    -0.250 OA
ATOM      9  O   UNL     1      -0.889   0.872 -21.805  0.00  0.00    -0.250 OA
ATOM     10  C   UNL     1       1.144   3.354 -22.816  0.00  0.00    +0.160 C 
ENDROOT
BRANCH   5  11
ATOM     11  C   UNL     1      -2.193   3.753 -22.660  0.00  0.00    -0.003 A 
ATOM     12  C   UNL     1      -2.711   3.656 -21.472  0.00  0.00    +0.011 A 
ATOM     13  C   UNL     1      -4.001   3.571 -21.331  0.00  0.00    +0.049 A 
ATOM     14  C   UNL     1      -4.772   3.583 -22.378  0.00  0.00    +0.158 A 
ATOM     15  C   UNL     1      -4.253   3.680 -23.566  0.00  0.00    +0.162 A 
ATOM     16  C   UNL     1      -2.964   3.765 -23.707  0.00  0.00    +0.056 A 
BRANCH  15  17
ATOM     17  O   UNL     1      -5.023   3.692 -24.614  0.00  0.00    -0.491 OA
ATOM     18  C   UNL     1      -4.558   3.310 -25.766  0.00  0.00    +0.277 C 
ENDBRANCH  15  17
BRANCH  14  19
ATOM     19  O   UNL     1      -6.062   3.498 -22.237  0.00  0.00    -0.503 OA
ATOM     20  H   UNL     1      -6.624   3.635 -22.975  0.00  0.00    +0.292 HD
ENDBRANCH  14  19
ENDBRANCH   5  11
BRANCH   1  23
ATOM     21  C   UNL     1       5.335   2.803 -21.820  0.00  0.00    +0.162 A 
ATOM     22  C   UNL     1       4.046   2.718 -21.680  0.00  0.00    +0.056 A 
ATOM     23  C   UNL     1       3.292   2.494 -22.714  0.00  0.00    -0.003 A 
ATOM     24  C   UNL     1       3.827   2.354 -23.891  0.00  0.00    +0.011 A 
ATOM     25  C   UNL     1       5.117   2.439 -24.032  0.00  0.00    +0.049 A 
ATOM     26  C   UNL     1       5.871   2.664 -22.996  0.00  0.00    +0.158 A 
BRANCH  21  28
ATOM     27  C   UNL     1       6.693   4.172 -20.658  0.00  0.00    +0.277 C 
ATOM     28  O   UNL     1       6.088   3.028 -20.784  0.00  0.00    -0.491 OA
ENDBRANCH  21  28
BRANCH  26  29
ATOM     29  O   UNL     1       7.161   2.749 -23.137  0.00  0.00    -0.503 OA
ATOM     30  H   UNL     1       7.618   3.504 -22.823  0.00  0.00    +0.292 HD
ENDBRANCH  26  29
ENDBRANCH   1  23
TORSDOF 6
ENDMDL
MODEL 5
REMARK VINA RESULT:   -10.124      1.370      1.785
REMARK INTER + INTRA:         -13.144
REMARK INTER:                 -12.583
REMARK INTRA:                  -0.561
REMARK UNBOUND:                -0.060
REMARK  Name = ZINC000016952753
REMARK  8 active torsions:
REMARK  status: ('A' for Active; 'I' for Inactive)
REMARK    1  A    between atoms: C_1  and  O_2
REMARK    2  A    between atoms: O_2  and  C_3
REMARK    3  A    between atoms: C_5  and  C_6
REMARK    4  A    between atoms: C_15  and  C_16
REMARK    5  A    between atoms: C_19  and  O_20
REMARK    6  A    between atoms: C_21  and  O_22
REMARK    7  A    between atoms: O_22  and  C_23
REMARK    8  A    between atoms: C_27  and  O_28
REMARK                            x       y       z     vdW  Elec       q    Type
REMARK                         _______ _______ _______ _____ _____    ______ ____
ROOT
ATOM      1  C   UNL     1       2.112   3.916 -23.272  0.00  0.00    +0.221 C 
ATOM      2  O   UNL     1       1.481   4.986 -23.653  0.00  0.00    -0.455 OA
ATOM      3  C   UNL     1       0.217   4.819 -23.402  0.00  0.00    +0.316 C 
ATOM      4  C   UNL     1       0.065   3.645 -22.865  0.00  0.00    +0.160 C 
ATOM      5  C   UNL     1      -0.810   2.816 -22.378  0.00  0.00    +0.221 C 
ATOM      6  O   UNL     1      -0.179   1.746 -21.997  0.00  0.00    -0.455 OA
ATOM      7  C   UNL     1       1.085   1.912 -22.248  0.00  0.00    +0.316 C 
ATOM      8  O   UNL     1       2.032   1.056 -22.005  0.00  0.00    -0.250 OA
ATOM      9  O   UNL     1      -0.730   5.676 -23.645  0.00  0.00    -0.250 OA
ATOM     10  C   UNL     1       1.237   3.087 -22.785  0.00  0.00    +0.160 C 
ENDROOT
BRANCH   5  11
ATOM     11  C   UNL     1      -2.089   3.022 -22.289  0.00  0.00    -0.003 A 
ATOM     12  C   UNL     1      -2.658   3.080 -21.121  0.00  0.00    +0.011 A 
ATOM     13  C   UNL     1      -3.939   3.286 -21.032  0.00  0.00    +0.049 A 
ATOM     14  C   UNL     1      -4.650   3.435 -22.110  0.00  0.00    +0.158 A 
ATOM     15  C   UNL     1      -4.081   3.377 -23.278  0.00  0.00    +0.162 A 
ATOM     16  C   UNL     1      -2.801   3.171 -23.366  0.00  0.00    +0.056 A 
BRANCH  15  17
ATOM     17  O   UNL     1      -4.792   3.526 -24.356  0.00  0.00    -0.491 OA
ATOM     18  C   UNL     1      -4.551   4.518 -25.161  0.00  0.00    +0.277 C 
ENDBRANCH  15  17
BRANCH  14  19
ATOM     19  O   UNL     1      -5.931   3.641 -22.021  0.00  0.00    -0.503 OA
ATOM     20  H   UNL     1      -6.262   4.516 -21.963  0.00  0.00    +0.292 HD
ENDBRANCH  14  19
ENDBRANCH   5  11
BRANCH   1  23
ATOM     21  C   UNL     1       5.508   4.411 -23.038  0.00  0.00    +0.162 A 
ATOM     22  C   UNL     1       4.227   4.616 -22.949  0.00  0.00    +0.056 A 
ATOM     23  C   UNL     1       3.392   3.710 -23.362  0.00  0.00    -0.003 A 
ATOM     24  C   UNL     1       3.837   2.596 -23.864  0.00  0.00    +0.011 A 
ATOM     25  C   UNL     1       5.118   2.390 -23.953  0.00  0.00    +0.049 A 
ATOM     26  C   UNL     1       5.953   3.297 -23.541  0.00  0.00    +0.158 A 
BRANCH  21  28
ATOM     27  C   UNL     1       5.897   6.396 -22.051  0.00  0.00    +0.277 C 
ATOM     28  O   UNL     1       6.342   5.318 -22.626  0.00  0.00    -0.491 OA
ENDBRANCH  21  28
BRANCH  26  29
ATOM     29  O   UNL     1       7.234   3.091 -23.630  0.00  0.00    -0.503 OA
ATOM     30  H   UNL     1       7.565   2.448 -24.226  0.00  0.00    +0.292 HD
ENDBRANCH  26  29
ENDBRANCH   1  23
TORSDOF 6
ENDMDL
MODEL 6
REMARK VINA RESULT:    -9.662      1.206      1.994
REMARK INTER + INTRA:         -12.547
REMARK INTER:                 -11.508
REMARK INTRA:                  -1.039
REMARK UNBOUND:                -0.060
REMARK  Name = ZINC000016952753
REMARK  8 active torsions:
REMARK  status: ('A' for Active; 'I' for Inactive)
REMARK    1  A    between atoms: C_1  and  O_2
REMARK    2  A    between atoms: O_2  and  C_3
REMARK    3  A    between atoms: C_5  and  C_6
REMARK    4  A    between atoms: C_15  and  C_16
REMARK    5  A    between atoms: C_19  and  O_20
REMARK    6  A    between atoms: C_21  and  O_22
REMARK    7  A    between atoms: O_22  and  C_23
REMARK    8  A    between atoms: C_27  and  O_28
REMARK                            x       y       z     vdW  Elec       q    Type
REMARK                         _______ _______ _______ _____ _____    ______ ____
ROOT
ATOM      1  C   UNL     1       2.493   3.675 -23.151  0.00  0.00    +0.221 C 
ATOM      2  O   UNL     1       2.023   4.878 -23.292  0.00  0.00    -0.455 OA
ATOM      3  C   UNL     1       0.728   4.800 -23.359  0.00  0.00    +0.316 C 
ATOM      4  C   UNL     1       0.395   3.547 -23.258  0.00  0.00    +0.160 C 
ATOM      5  C   UNL     1      -0.611   2.723 -23.237  0.00  0.00    +0.221 C 
ATOM      6  O   UNL     1      -0.141   1.520 -23.095  0.00  0.00    -0.455 OA
ATOM      7  C   UNL     1       1.154   1.599 -23.028  0.00  0.00    +0.316 C 
ATOM      8  O   UNL     1       1.975   0.600 -22.886  0.00  0.00    -0.250 OA
ATOM      9  O   UNL     1      -0.093   5.798 -23.501  0.00  0.00    -0.250 OA
ATOM     10  C   UNL     1       1.487   2.852 -23.129  0.00  0.00    +0.160 C 
ENDROOT
BRANCH   5  11
ATOM     11  C   UNL     1      -1.865   3.048 -23.339  0.00  0.00    -0.003 A 
ATOM     12  C   UNL     1      -2.345   3.431 -24.485  0.00  0.00    +0.011 A 
ATOM     13  C   UNL     1      -3.601   3.755 -24.588  0.00  0.00    +0.049 A 
ATOM     14  C   UNL     1      -4.374   3.696 -23.544  0.00  0.00    +0.158 A 
ATOM     15  C   UNL     1      -3.894   3.313 -22.399  0.00  0.00    +0.162 A 
ATOM     16  C   UNL     1      -2.639   2.989 -22.297  0.00  0.00    +0.056 A 
BRANCH  15  17
ATOM     17  O   UNL     1      -4.667   3.254 -21.355  0.00  0.00    -0.491 OA
ATOM     18  C   UNL     1      -4.670   2.190 -20.609  0.00  0.00    +0.277 C 
ENDBRANCH  15  17
BRANCH  14  19
ATOM     19  O   UNL     1      -5.629   4.021 -23.647  0.00  0.00    -0.503 OA
ATOM     20  H   UNL     1      -6.286   3.486 -23.245  0.00  0.00    +0.292 HD
ENDBRANCH  14  19
ENDBRANCH   5  11
BRANCH   1  23
ATOM     21  C   UNL     1       5.635   3.223 -21.826  0.00  0.00    +0.162 A 
ATOM     22  C   UNL     1       4.380   3.547 -21.930  0.00  0.00    +0.056 A 
ATOM     23  C   UNL     1       3.747   3.351 -23.048  0.00  0.00    -0.003 A 
ATOM     24  C   UNL     1       4.369   2.830 -24.064  0.00  0.00    +0.011 A 
ATOM     25  C   UNL     1       5.624   2.506 -23.961  0.00  0.00    +0.049 A 
ATOM     26  C   UNL     1       6.256   2.702 -22.842  0.00  0.00    +0.158 A 
BRANCH  21  28
ATOM     27  C   UNL     1       6.926   4.525 -20.520  0.00  0.00    +0.277 C 
ATOM     28  O   UNL     1       6.267   3.420 -20.707  0.00  0.00    -0.491 OA
ENDBRANCH  21  28
BRANCH  26  29
ATOM     29  O   UNL     1       7.512   2.378 -22.739  0.00  0.00    -0.503 OA
ATOM     30  H   UNL     1       8.144   2.760 -23.316  0.00  0.00    +0.292 HD
ENDBRANCH  26  29
ENDBRANCH   1  23
TORSDOF 6
ENDMDL
MODEL 7
REMARK VINA RESULT:    -9.280      1.748      8.146
REMARK INTER + INTRA:         -12.053
REMARK INTER:                 -11.534
REMARK INTRA:                  -0.519
REMARK UNBOUND:                -0.060
REMARK  Name = ZINC000016952753
REMARK  8 active torsions:
REMARK  status: ('A' for Active; 'I' for Inactive)
REMARK    1  A    between atoms: C_1  and  O_2
REMARK    2  A    between atoms: O_2  and  C_3
REMARK    3  A    between atoms: C_5  and  C_6
REMARK    4  A    between atoms: C_15  and  C_16
REMARK    5  A    between atoms: C_19  and  O_20
REMARK    6  A    between atoms: C_21  and  O_22
REMARK    7  A    between atoms: O_22  and  C_23
REMARK    8  A    between atoms: C_27  and  O_28
REMARK                            x       y       z     vdW  Elec       q    Type
REMARK                         _______ _______ _______ _____ _____    ______ ____
ROOT
ATOM      1  C   UNL     1       0.170   2.739 -22.983  0.00  0.00    +0.221 C 
ATOM      2  O   UNL     1       0.824   1.642 -22.740  0.00  0.00    -0.455 OA
ATOM      3  C   UNL     1       2.094   1.910 -22.803  0.00  0.00    +0.316 C 
ATOM      4  C   UNL     1       2.227   3.172 -23.084  0.00  0.00    +0.160 C 
ATOM      5  C   UNL     1       3.093   4.118 -23.296  0.00  0.00    +0.221 C 
ATOM      6  O   UNL     1       2.438   5.214 -23.539  0.00  0.00    -0.455 OA
ATOM      7  C   UNL     1       1.168   4.947 -23.476  0.00  0.00    +0.316 C 
ATOM      8  O   UNL     1       0.199   5.793 -23.663  0.00  0.00    -0.250 OA
ATOM      9  O   UNL     1       3.064   1.064 -22.616  0.00  0.00    -0.250 OA
ATOM     10  C   UNL     1       1.036   3.684 -23.195  0.00  0.00    +0.160 C 
ENDROOT
BRANCH   5  11
ATOM     11  C   UNL     1       4.386   3.989 -23.270  0.00  0.00    -0.003 A 
ATOM     12  C   UNL     1       4.942   2.920 -23.759  0.00  0.00    +0.011 A 
ATOM     13  C   UNL     1       6.236   2.791 -23.733  0.00  0.00    +0.049 A 
ATOM     14  C   UNL     1       6.972   3.731 -23.218  0.00  0.00    +0.158 A 
ATOM     15  C   UNL     1       6.416   4.800 -22.730  0.00  0.00    +0.162 A 
ATOM     16  C   UNL     1       5.123   4.928 -22.756  0.00  0.00    +0.056 A 
BRANCH  15  17
ATOM     17  O   UNL     1       7.152   5.740 -22.215  0.00  0.00    -0.491 OA
ATOM     18  C   UNL     1       6.592   6.753 -21.624  0.00  0.00    +0.277 C 
ENDBRANCH  15  17
BRANCH  14  19
ATOM     19  O   UNL     1       8.266   3.602 -23.192  0.00  0.00    -0.503 OA
ATOM     20  H   UNL     1       8.693   3.036 -23.805  0.00  0.00    +0.292 HD
ENDBRANCH  14  19
ENDBRANCH   5  11
BRANCH   1  23
ATOM     21  C   UNL     1      -3.084   3.072 -21.921  0.00  0.00    +0.162 A 
ATOM     22  C   UNL     1      -1.791   2.943 -21.896  0.00  0.00    +0.056 A 
ATOM     23  C   UNL     1      -1.123   2.868 -23.009  0.00  0.00    -0.003 A 
ATOM     24  C   UNL     1      -1.748   2.921 -24.148  0.00  0.00    +0.011 A 
ATOM     25  C   UNL     1      -3.042   3.051 -24.173  0.00  0.00    +0.049 A 
ATOM     26  C   UNL     1      -3.709   3.126 -23.060  0.00  0.00    +0.158 A 
BRANCH  21  28
ATOM     27  C   UNL     1      -3.224   3.730 -19.773  0.00  0.00    +0.277 C 
ATOM     28  O   UNL     1      -3.752   3.148 -20.808  0.00  0.00    -0.491 OA
ENDBRANCH  21  28
BRANCH  26  29
ATOM     29  O   UNL     1      -5.003   3.255 -23.086  0.00  0.00    -0.503 OA
ATOM     30  H   UNL     1      -5.415   3.717 -23.790  0.00  0.00    +0.292 HD
ENDBRANCH  26  29
ENDBRANCH   1  23
TORSDOF 6
ENDMDL
MODEL 8
REMARK VINA RESULT:    -9.090      1.502      2.750
REMARK INTER + INTRA:         -11.807
REMARK INTER:                 -12.182
REMARK INTRA:                   0.375
REMARK UNBOUND:                -0.060
REMARK  Name = ZINC000016952753
REMARK  8 active torsions:
REMARK  status: ('A' for Active; 'I' for Inactive)
REMARK    1  A    between atoms: C_1  and  O_2
REMARK    2  A    between atoms: O_2  and  C_3
REMARK    3  A    between atoms: C_5  and  C_6
REMARK    4  A    between atoms: C_15  and  C_16
REMARK    5  A    between atoms: C_19  and  O_20
REMARK    6  A    between atoms: C_21  and  O_22
REMARK    7  A    between atoms: O_22  and  C_23
REMARK    8  A    between atoms: C_27  and  O_28
REMARK                            x       y       z     vdW  Elec       q    Type
REMARK                         _______ _______ _______ _____ _____    ______ ____
ROOT
ATOM      1  C   UNL     1       1.664   2.301 -22.601  0.00  0.00    +0.221 C 
ATOM      2  O   UNL     1       0.892   2.081 -21.579  0.00  0.00    -0.455 OA
ATOM      3  C   UNL     1      -0.325   2.381 -21.922  0.00  0.00    +0.316 C 
ATOM      4  C   UNL     1      -0.307   2.786 -23.157  0.00  0.00    +0.160 C 
ATOM      5  C   UNL     1      -1.048   3.222 -24.133  0.00  0.00    +0.221 C 
ATOM      6  O   UNL     1      -0.275   3.442 -25.155  0.00  0.00    -0.455 OA
ATOM      7  C   UNL     1       0.941   3.142 -24.812  0.00  0.00    +0.316 C 
ATOM      8  O   UNL     1       1.993   3.231 -25.570  0.00  0.00    -0.250 OA
ATOM      9  O   UNL     1      -1.377   2.292 -21.163  0.00  0.00    -0.250 OA
ATOM     10  C   UNL     1       0.923   2.737 -23.577  0.00  0.00    +0.160 C 
ENDROOT
BRANCH   5  11
ATOM     11  C   UNL     1      -2.333   3.405 -24.092  0.00  0.00    -0.003 A 
ATOM     12  C   UNL     1      -2.993   3.625 -25.190  0.00  0.00    +0.011 A 
ATOM     13  C   UNL     1      -4.280   3.809 -25.149  0.00  0.00    +0.049 A 
ATOM     14  C   UNL     1      -4.906   3.772 -24.010  0.00  0.00    +0.158 A 
ATOM     15  C   UNL     1      -4.246   3.553 -22.912  0.00  0.00    +0.162 A 
ATOM     16  C   UNL     1      -2.960   3.369 -22.953  0.00  0.00    +0.056 A 
BRANCH  15  17
ATOM     17  O   UNL     1      -4.871   3.516 -21.773  0.00  0.00    -0.491 OA
ATOM     18  C   UNL     1      -4.825   2.443 -21.041  0.00  0.00    +0.277 C 
ENDBRANCH  15  17
BRANCH  14  19
ATOM     19  O   UNL     1      -6.193   3.956 -23.969  0.00  0.00    -0.503 OA
ATOM     20  H   UNL     1      -6.676   3.720 -23.201  0.00  0.00    +0.292 HD
ENDBRANCH  14  19
ENDBRANCH   5  11
BRANCH   1  23
ATOM     21  C   UNL     1       5.023   2.920 -22.998  0.00  0.00    +0.162 A 
ATOM     22  C   UNL     1       3.737   3.102 -22.957  0.00  0.00    +0.056 A 
ATOM     23  C   UNL     1       2.949   2.118 -22.642  0.00  0.00    -0.003 A 
ATOM     24  C   UNL     1       3.448   0.949 -22.367  0.00  0.00    +0.011 A 
ATOM     25  C   UNL     1       4.735   0.765 -22.408  0.00  0.00    +0.049 A 
ATOM     26  C   UNL     1       5.522   1.751 -22.723  0.00  0.00    +0.158 A 
BRANCH  21  28
ATOM     27  C   UNL     1       5.851   4.968 -22.566  0.00  0.00    +0.277 C 
ATOM     28  O   UNL     1       5.810   3.905 -23.313  0.00  0.00    -0.491 OA
ENDBRANCH  21  28
BRANCH  26  29
ATOM     29  O   UNL     1       6.809   1.568 -22.764  0.00  0.00    -0.503 OA
ATOM     30  H   UNL     1       7.197   1.125 -23.493  0.00  0.00    +0.292 HD
ENDBRANCH  26  29
ENDBRANCH   1  23
TORSDOF 6
ENDMDL
MODEL 9
REMARK VINA RESULT:    -8.122      1.810      8.530
REMARK INTER + INTRA:         -10.556
REMARK INTER:                 -10.496
REMARK INTRA:                  -0.060
REMARK UNBOUND:                -0.060
REMARK  Name = ZINC000016952753
REMARK  8 active torsions:
REMARK  status: ('A' for Active; 'I' for Inactive)
REMARK    1  A    between atoms: C_1  and  O_2
REMARK    2  A    between atoms: O_2  and  C_3
REMARK    3  A    between atoms: C_5  and  C_6
REMARK    4  A    between atoms: C_15  and  C_16
REMARK    5  A    between atoms: C_19  and  O_20
REMARK    6  A    between atoms: C_21  and  O_22
REMARK    7  A    between atoms: O_22  and  C_23
REMARK    8  A    between atoms: C_27  and  O_28
REMARK                            x       y       z     vdW  Elec       q    Type
REMARK                         _______ _______ _______ _____ _____    ______ ____
ROOT
ATOM      1  C   UNL     1       0.949   2.666 -23.338  0.00  0.00    +0.221 C 
ATOM      2  O   UNL     1       1.621   1.556 -23.254  0.00  0.00    -0.455 OA
ATOM      3  C   UNL     1       2.882   1.855 -23.166  0.00  0.00    +0.316 C 
ATOM      4  C   UNL     1       2.992   3.150 -23.196  0.00  0.00    +0.160 C 
ATOM      5  C   UNL     1       3.839   4.135 -23.160  0.00  0.00    +0.221 C 
ATOM      6  O   UNL     1       3.168   5.245 -23.244  0.00  0.00    -0.455 OA
ATOM      7  C   UNL     1       1.906   4.946 -23.332  0.00  0.00    +0.316 C 
ATOM      8  O   UNL     1       0.925   5.793 -23.432  0.00  0.00    -0.250 OA
ATOM      9  O   UNL     1       3.863   1.008 -23.066  0.00  0.00    -0.250 OA
ATOM     10  C   UNL     1       1.796   3.651 -23.302  0.00  0.00    +0.160 C 
ENDROOT
BRANCH   5  11
ATOM     11  C   UNL     1       5.130   4.029 -23.058  0.00  0.00    -0.003 A 
ATOM     12  C   UNL     1       5.850   3.816 -24.120  0.00  0.00    +0.011 A 
ATOM     13  C   UNL     1       7.143   3.709 -24.018  0.00  0.00    +0.049 A 
ATOM     14  C   UNL     1       7.713   3.815 -22.854  0.00  0.00    +0.158 A 
ATOM     15  C   UNL     1       6.993   4.028 -21.793  0.00  0.00    +0.162 A 
ATOM     16  C   UNL     1       5.702   4.134 -21.896  0.00  0.00    +0.056 A 
BRANCH  15  17
ATOM     17  O   UNL     1       7.564   4.133 -20.630  0.00  0.00    -0.491 OA
ATOM     18  C   UNL     1       7.836   5.308 -20.145  0.00  0.00    +0.277 C 
ENDBRANCH  15  17
BRANCH  14  19
ATOM     19  O   UNL     1       9.006   3.708 -22.752  0.00  0.00    -0.503 OA
ATOM     20  H   UNL     1       9.443   4.022 -21.985  0.00  0.00    +0.292 HD
ENDBRANCH  14  19
ENDBRANCH   5  11
BRANCH   1  23
ATOM     21  C   UNL     1      -2.173   3.171 -24.688  0.00  0.00    +0.162 A 
ATOM     22  C   UNL     1      -0.882   3.064 -24.586  0.00  0.00    +0.056 A 
ATOM     23  C   UNL     1      -0.342   2.773 -23.440  0.00  0.00    -0.003 A 
ATOM     24  C   UNL     1      -1.094   2.587 -22.395  0.00  0.00    +0.011 A 
ATOM     25  C   UNL     1      -2.386   2.694 -22.497  0.00  0.00    +0.049 A 
ATOM     26  C   UNL     1      -2.925   2.986 -23.644  0.00  0.00    +0.158 A 
BRANCH  21  28
ATOM     27  C   UNL     1      -3.861   2.949 -26.161  0.00  0.00    +0.277 C 
ATOM     28  O   UNL     1      -2.713   3.463 -25.835  0.00  0.00    -0.491 OA
ENDBRANCH  21  28
BRANCH  26  29
ATOM     29  O   UNL     1      -4.217   3.093 -23.746  0.00  0.00    -0.503 OA
ATOM     30  H   UNL     1      -4.672   2.648 -24.434  0.00  0.00    +0.292 HD
ENDBRANCH  26  29
ENDBRANCH   1  23
TORSDOF 6
ENDMDL
