MODEL 1
REMARK VINA RESULT:   -12.098      0.000      0.000
REMARK INTER + INTRA:         -12.452
REMARK INTER:                 -12.452
REMARK INTRA:                   0.000
REMARK UNBOUND:                 0.000
REMARK  Name = C[C@]12CC[C@@H]3[C@H](CC(=O)[C@H]4C[C@@H](O)CC[C@@]43C)[C@@H]1CCC2=O ZINC000253504578
REMARK  3 active torsions:
REMARK  status: ('A' for Active; 'I' for Inactive)
REMARK    1  A    between atoms: C_1  and  C_2
REMARK    2  A    between atoms: C_12  and  O_13
REMARK    3  A    between atoms: C_16  and  C_17
REMARK                            x       y       z     vdW  Elec       q    Type
REMARK                         _______ _______ _______ _____ _____    ______ ____
ROOT
ATOM      1  C   UNL     1      -4.855   2.880 -21.663  0.00  0.00    +0.019 C 
ATOM      2  C   UNL     1      -3.991   3.152 -22.594  0.00  0.00    +0.029 C 
ATOM      3  C   UNL     1      -3.485   2.539 -21.566  0.00  0.00    +0.015 C 
ATOM      4  C   UNL     1      -2.216   2.255 -21.537  0.00  0.00    +0.005 C 
ATOM      5  C   UNL     1      -1.454   2.583 -22.538  0.00  0.00    -0.001 C 
ATOM      6  C   UNL     1      -1.960   3.196 -23.566  0.00  0.00    +0.004 C 
ATOM      7  C   UNL     1      -1.198   3.525 -24.567  0.00  0.00    +0.078 C 
ATOM      8  C   UNL     1       0.070   3.241 -24.539  0.00  0.00    +0.137 C 
ATOM      9  C   UNL     1       0.576   2.628 -23.510  0.00  0.00    +0.064 C 
ATOM     10  C   UNL     1       1.844   2.343 -23.482  0.00  0.00    +0.043 C 
ATOM     11  C   UNL     1       2.350   1.731 -22.453  0.00  0.00    +0.115 C 
ATOM     12  C   UNL     1       1.588   1.402 -21.452  0.00  0.00    +0.032 C 
ATOM     13  C   UNL     1       0.320   1.686 -21.480  0.00  0.00    +0.010 C 
ATOM     14  O   UNL     1       0.833   3.569 -25.539  0.00  0.00    -0.297 OA
ATOM     15  C   UNL     1      -0.186   2.299 -22.510  0.00  0.00    -0.019 C 
ATOM     16  C   UNL     1      -0.948   1.971 -21.509  0.00  0.00    +0.012 C 
ATOM     17  C   UNL     1      -5.200   3.543 -22.866  0.00  0.00    +0.139 C 
ATOM     18  O   UNL     1      -6.242   3.391 -22.103  0.00  0.00    -0.297 OA
ATOM     19  C   UNL     1      -5.186   4.114 -24.034  0.00  0.00    +0.075 C 
ATOM     20  C   UNL     1      -3.967   4.075 -24.484  0.00  0.00    +0.012 C 
ATOM     21  C   UNL     1      -3.229   3.481 -23.595  0.00  0.00    +0.006 C 
ENDROOT
BRANCH  11  22
ATOM     22  O   UNL     1       3.619   1.446 -22.424  0.00  0.00    -0.392 OA
ATOM     23  H   UNL     1       3.813   0.918 -21.634  0.00  0.00    +0.210 HD
ENDBRANCH  11  22
TORSDOF 1
ENDMDL
MODEL 2
REMARK VINA RESULT:   -11.823      1.142      2.665
REMARK INTER + INTRA:         -12.169
REMARK INTER:                 -12.169
REMARK INTRA:                   0.000
REMARK UNBOUND:                 0.000
REMARK  Name = C[C@]12CC[C@@H]3[C@H](CC(=O)[C@H]4C[C@@H](O)CC[C@@]43C)[C@@H]1CCC2=O ZINC000253504578
REMARK  3 active torsions:
REMARK  status: ('A' for Active; 'I' for Inactive)
REMARK    1  A    between atoms: C_1  and  C_2
REMARK    2  A    between atoms: C_12  and  O_13
REMARK    3  A    between atoms: C_16  and  C_17
REMARK                            x       y       z     vdW  Elec       q    Type
REMARK                         _______ _______ _______ _____ _____    ______ ____
ROOT
ATOM      1  C   UNL     1      -4.531   3.777 -23.911  0.00  0.00    +0.019 C 
ATOM      2  C   UNL     1      -3.686   3.253 -23.074  0.00  0.00    +0.029 C 
ATOM      3  C   UNL     1      -3.164   3.579 -24.220  0.00  0.00    +0.015 C 
ATOM      4  C   UNL     1      -1.900   3.370 -24.441  0.00  0.00    +0.005 C 
ATOM      5  C   UNL     1      -1.158   2.836 -23.517  0.00  0.00    -0.001 C 
ATOM      6  C   UNL     1      -1.679   2.510 -22.372  0.00  0.00    +0.004 C 
ATOM      7  C   UNL     1      -0.937   1.976 -21.448  0.00  0.00    +0.078 C 
ATOM      8  C   UNL     1       0.326   1.768 -21.669  0.00  0.00    +0.137 C 
ATOM      9  C   UNL     1       0.848   2.093 -22.815  0.00  0.00    +0.064 C 
ATOM     10  C   UNL     1       2.112   1.884 -23.036  0.00  0.00    +0.043 C 
ATOM     11  C   UNL     1       2.633   2.210 -24.181  0.00  0.00    +0.115 C 
ATOM     12  C   UNL     1       1.891   2.744 -25.106  0.00  0.00    +0.032 C 
ATOM     13  C   UNL     1       0.628   2.953 -24.884  0.00  0.00    +0.010 C 
ATOM     14  O   UNL     1       1.069   1.233 -20.745  0.00  0.00    -0.297 OA
ATOM     15  C   UNL     1       0.106   2.627 -23.739  0.00  0.00    -0.019 C 
ATOM     16  C   UNL     1      -0.636   3.161 -24.663  0.00  0.00    +0.012 C 
ATOM     17  C   UNL     1      -4.895   3.354 -22.609  0.00  0.00    +0.139 C 
ATOM     18  O   UNL     1      -5.921   3.841 -23.244  0.00  0.00    -0.297 OA
ATOM     19  C   UNL     1      -4.901   2.882 -21.398  0.00  0.00    +0.075 C 
ATOM     20  C   UNL     1      -3.695   2.490 -21.114  0.00  0.00    +0.012 C 
ATOM     21  C   UNL     1      -2.944   2.719 -22.150  0.00  0.00    +0.006 C 
ENDROOT
BRANCH  11  22
ATOM     22  O   UNL     1       3.898   2.001 -24.403  0.00  0.00    -0.392 OA
ATOM     23  H   UNL     1       4.013   1.136 -24.827  0.00  0.00    +0.210 HD
ENDBRANCH  11  22
TORSDOF 1
ENDMDL
MODEL 3
REMARK VINA RESULT:   -11.573      1.158      5.517
REMARK INTER + INTRA:         -11.911
REMARK INTER:                 -11.911
REMARK INTRA:                   0.000
REMARK UNBOUND:                 0.000
REMARK  Name = C[C@]12CC[C@@H]3[C@H](CC(=O)[C@H]4C[C@@H](O)CC[C@@]43C)[C@@H]1CCC2=O ZINC000253504578
REMARK  3 active torsions:
REMARK  status: ('A' for Active; 'I' for Inactive)
REMARK    1  A    between atoms: C_1  and  C_2
REMARK    2  A    between atoms: C_12  and  O_13
REMARK    3  A    between atoms: C_16  and  C_17
REMARK                            x       y       z     vdW  Elec       q    Type
REMARK                         _______ _______ _______ _____ _____    ______ ____
ROOT
ATOM      1  C   UNL     1       1.664   2.029 -22.512  0.00  0.00    +0.019 C 
ATOM      2  C   UNL     1       0.805   2.627 -23.283  0.00  0.00    +0.029 C 
ATOM      3  C   UNL     1       0.286   2.124 -22.203  0.00  0.00    +0.015 C 
ATOM      4  C   UNL     1      -0.989   2.245 -21.976  0.00  0.00    +0.005 C 
ATOM      5  C   UNL     1      -1.744   2.870 -22.831  0.00  0.00    -0.001 C 
ATOM      6  C   UNL     1      -1.225   3.372 -23.911  0.00  0.00    +0.004 C 
ATOM      7  C   UNL     1      -1.979   3.996 -24.766  0.00  0.00    +0.078 C 
ATOM      8  C   UNL     1      -3.253   4.118 -24.540  0.00  0.00    +0.137 C 
ATOM      9  C   UNL     1      -3.773   3.615 -23.459  0.00  0.00    +0.064 C 
ATOM     10  C   UNL     1      -5.047   3.736 -23.233  0.00  0.00    +0.043 C 
ATOM     11  C   UNL     1      -5.566   3.234 -22.153  0.00  0.00    +0.115 C 
ATOM     12  C   UNL     1      -4.812   2.609 -21.298  0.00  0.00    +0.032 C 
ATOM     13  C   UNL     1      -3.538   2.488 -21.524  0.00  0.00    +0.010 C 
ATOM     14  O   UNL     1      -4.009   4.742 -25.394  0.00  0.00    -0.297 OA
ATOM     15  C   UNL     1      -3.018   2.991 -22.605  0.00  0.00    -0.019 C 
ATOM     16  C   UNL     1      -2.263   2.367 -21.750  0.00  0.00    +0.012 C 
ATOM     17  C   UNL     1       2.023   2.644 -23.737  0.00  0.00    +0.139 C 
ATOM     18  O   UNL     1       3.062   2.118 -23.157  0.00  0.00    -0.297 OA
ATOM     19  C   UNL     1       2.021   3.278 -24.871  0.00  0.00    +0.075 C 
ATOM     20  C   UNL     1       0.802   3.653 -25.119  0.00  0.00    +0.012 C 
ATOM     21  C   UNL     1       0.050   3.251 -24.138  0.00  0.00    +0.006 C 
ENDROOT
BRANCH  11  22
ATOM     22  O   UNL     1      -6.841   3.355 -21.927  0.00  0.00    -0.392 OA
ATOM     23  H   UNL     1      -6.999   4.139 -21.378  0.00  0.00    +0.210 HD
ENDBRANCH  11  22
TORSDOF 1
ENDMDL
MODEL 4
REMARK VINA RESULT:   -10.886      0.964      5.715
REMARK INTER + INTRA:         -11.204
REMARK INTER:                 -11.204
REMARK INTRA:                   0.000
REMARK UNBOUND:                 0.000
REMARK  Name = C[C@]12CC[C@@H]3[C@H](CC(=O)[C@H]4C[C@@H](O)CC[C@@]43C)[C@@H]1CCC2=O ZINC000253504578
REMARK  3 active torsions:
REMARK  status: ('A' for Active; 'I' for Inactive)
REMARK    1  A    between atoms: C_1  and  C_2
REMARK    2  A    between atoms: C_12  and  O_13
REMARK    3  A    between atoms: C_16  and  C_17
REMARK                            x       y       z     vdW  Elec       q    Type
REMARK                         _______ _______ _______ _____ _____    ______ ____
ROOT
ATOM      1  C   UNL     1       3.008   1.065 -21.483  0.00  0.00    +0.019 C 
ATOM      2  C   UNL     1       2.330   1.594 -22.458  0.00  0.00    +0.029 C 
ATOM      3  C   UNL     1       1.628   1.369 -21.387  0.00  0.00    +0.015 C 
ATOM      4  C   UNL     1       0.364   1.671 -21.363  0.00  0.00    +0.005 C 
ATOM      5  C   UNL     1      -0.198   2.198 -22.410  0.00  0.00    -0.001 C 
ATOM      6  C   UNL     1       0.503   2.423 -23.481  0.00  0.00    +0.004 C 
ATOM      7  C   UNL     1      -0.059   2.950 -24.528  0.00  0.00    +0.078 C 
ATOM      8  C   UNL     1      -1.322   3.252 -24.504  0.00  0.00    +0.137 C 
ATOM      9  C   UNL     1      -2.025   3.027 -23.433  0.00  0.00    +0.064 C 
ATOM     10  C   UNL     1      -3.289   3.329 -23.409  0.00  0.00    +0.043 C 
ATOM     11  C   UNL     1      -3.990   3.104 -22.338  0.00  0.00    +0.115 C 
ATOM     12  C   UNL     1      -3.428   2.577 -21.291  0.00  0.00    +0.032 C 
ATOM     13  C   UNL     1      -2.165   2.275 -21.315  0.00  0.00    +0.010 C 
ATOM     14  O   UNL     1      -1.885   3.779 -25.551  0.00  0.00    -0.297 OA
ATOM     15  C   UNL     1      -1.462   2.500 -22.386  0.00  0.00    -0.019 C 
ATOM     16  C   UNL     1      -0.900   1.973 -21.339  0.00  0.00    +0.012 C 
ATOM     17  C   UNL     1       3.583   1.388 -22.736  0.00  0.00    +0.139 C 
ATOM     18  O   UNL     1       4.470   0.873 -21.936  0.00  0.00    -0.297 OA
ATOM     19  C   UNL     1       3.796   1.789 -23.955  0.00  0.00    +0.075 C 
ATOM     20  C   UNL     1       2.674   2.241 -24.430  0.00  0.00    +0.012 C 
ATOM     21  C   UNL     1       1.768   2.121 -23.505  0.00  0.00    +0.006 C 
ENDROOT
BRANCH  11  22
ATOM     22  O   UNL     1      -5.255   3.406 -22.314  0.00  0.00    -0.392 OA
ATOM     23  H   UNL     1      -5.568   3.561 -23.219  0.00  0.00    +0.210 HD
ENDBRANCH  11  22
TORSDOF 1
ENDMDL
MODEL 5
REMARK VINA RESULT:   -10.728      1.217      6.148
REMARK INTER + INTRA:         -11.042
REMARK INTER:                 -11.042
REMARK INTRA:                   0.000
REMARK UNBOUND:                 0.000
REMARK  Name = C[C@]12CC[C@@H]3[C@H](CC(=O)[C@H]4C[C@@H](O)CC[C@@]43C)[C@@H]1CCC2=O ZINC000253504578
REMARK  3 active torsions:
REMARK  status: ('A' for Active; 'I' for Inactive)
REMARK    1  A    between atoms: C_1  and  C_2
REMARK    2  A    between atoms: C_12  and  O_13
REMARK    3  A    between atoms: C_16  and  C_17
REMARK                            x       y       z     vdW  Elec       q    Type
REMARK                         _______ _______ _______ _____ _____    ______ ____
ROOT
ATOM      1  C   UNL     1       2.531   2.706 -24.398  0.00  0.00    +0.019 C 
ATOM      2  C   UNL     1       1.603   2.458 -23.522  0.00  0.00    +0.029 C 
ATOM      3  C   UNL     1       1.179   3.083 -24.580  0.00  0.00    +0.015 C 
ATOM      4  C   UNL     1      -0.078   3.402 -24.687  0.00  0.00    +0.005 C 
ATOM      5  C   UNL     1      -0.909   3.094 -23.736  0.00  0.00    -0.001 C 
ATOM      6  C   UNL     1      -0.484   2.469 -22.678  0.00  0.00    +0.004 C 
ATOM      7  C   UNL     1      -1.315   2.162 -21.727  0.00  0.00    +0.078 C 
ATOM      8  C   UNL     1      -2.571   2.480 -21.833  0.00  0.00    +0.137 C 
ATOM      9  C   UNL     1      -2.996   3.106 -22.891  0.00  0.00    +0.064 C 
ATOM     10  C   UNL     1      -4.252   3.424 -22.997  0.00  0.00    +0.043 C 
ATOM     11  C   UNL     1      -4.676   4.049 -24.055  0.00  0.00    +0.115 C 
ATOM     12  C   UNL     1      -3.845   4.356 -25.006  0.00  0.00    +0.032 C 
ATOM     13  C   UNL     1      -2.590   4.038 -24.900  0.00  0.00    +0.010 C 
ATOM     14  O   UNL     1      -3.403   2.173 -20.882  0.00  0.00    -0.297 OA
ATOM     15  C   UNL     1      -2.164   3.412 -23.842  0.00  0.00    -0.019 C 
ATOM     16  C   UNL     1      -1.333   3.720 -24.793  0.00  0.00    +0.012 C 
ATOM     17  C   UNL     1       2.783   2.034 -23.177  0.00  0.00    +0.139 C 
ATOM     18  O   UNL     1       3.874   2.158 -23.873  0.00  0.00    -0.297 OA
ATOM     19  C   UNL     1       2.680   1.466 -22.012  0.00  0.00    +0.075 C 
ATOM     20  C   UNL     1       1.438   1.537 -21.638  0.00  0.00    +0.012 C 
ATOM     21  C   UNL     1       0.772   2.151 -22.571  0.00  0.00    +0.006 C 
ENDROOT
BRANCH  11  22
ATOM     22  O   UNL     1      -5.932   4.368 -24.162  0.00  0.00    -0.392 OA
ATOM     23  H   UNL     1      -6.050   4.971 -24.912  0.00  0.00    +0.210 HD
ENDBRANCH  11  22
TORSDOF 1
ENDMDL
MODEL 6
REMARK VINA RESULT:    -9.939      1.840      2.852
REMARK INTER + INTRA:         -10.229
REMARK INTER:                 -10.229
REMARK INTRA:                   0.000
REMARK UNBOUND:                 0.000
REMARK  Name = C[C@]12CC[C@@H]3[C@H](CC(=O)[C@H]4C[C@@H](O)CC[C@@]43C)[C@@H]1CCC2=O ZINC000253504578
REMARK  3 active torsions:
REMARK  status: ('A' for Active; 'I' for Inactive)
REMARK    1  A    between atoms: C_1  and  C_2
REMARK    2  A    between atoms: C_12  and  O_13
REMARK    3  A    between atoms: C_16  and  C_17
REMARK                            x       y       z     vdW  Elec       q    Type
REMARK                         _______ _______ _______ _____ _____    ______ ____
ROOT
ATOM      1  C   UNL     1      -2.382   2.347 -22.352  0.00  0.00    +0.019 C 
ATOM      2  C   UNL     1      -1.341   3.042 -22.699  0.00  0.00    +0.029 C 
ATOM      3  C   UNL     1      -1.056   1.877 -22.199  0.00  0.00    +0.015 C 
ATOM      4  C   UNL     1       0.185   1.504 -22.085  0.00  0.00    +0.005 C 
ATOM      5  C   UNL     1       1.139   2.297 -22.471  0.00  0.00    -0.001 C 
ATOM      6  C   UNL     1       0.854   3.463 -22.971  0.00  0.00    +0.004 C 
ATOM      7  C   UNL     1       1.809   4.256 -23.358  0.00  0.00    +0.078 C 
ATOM      8  C   UNL     1       3.049   3.884 -23.244  0.00  0.00    +0.137 C 
ATOM      9  C   UNL     1       3.335   2.717 -22.744  0.00  0.00    +0.064 C 
ATOM     10  C   UNL     1       4.575   2.345 -22.630  0.00  0.00    +0.043 C 
ATOM     11  C   UNL     1       4.860   1.180 -22.130  0.00  0.00    +0.115 C 
ATOM     12  C   UNL     1       3.905   0.386 -21.744  0.00  0.00    +0.032 C 
ATOM     13  C   UNL     1       2.665   0.759 -21.858  0.00  0.00    +0.010 C 
ATOM     14  O   UNL     1       4.004   4.676 -23.630  0.00  0.00    -0.297 OA
ATOM     15  C   UNL     1       2.379   1.925 -22.358  0.00  0.00    -0.019 C 
ATOM     16  C   UNL     1       1.424   1.132 -21.972  0.00  0.00    +0.012 C 
ATOM     17  C   UNL     1      -2.474   3.642 -22.916  0.00  0.00    +0.139 C 
ATOM     18  O   UNL     1      -3.655   3.163 -22.659  0.00  0.00    -0.297 OA
ATOM     19  C   UNL     1      -2.219   4.806 -23.437  0.00  0.00    +0.075 C 
ATOM     20  C   UNL     1      -0.929   4.925 -23.541  0.00  0.00    +0.012 C 
ATOM     21  C   UNL     1      -0.386   3.836 -23.085  0.00  0.00    +0.006 C 
ENDROOT
BRANCH  11  22
ATOM     22  O   UNL     1       6.100   0.807 -22.017  0.00  0.00    -0.392 OA
ATOM     23  H   UNL     1       6.201   0.258 -21.223  0.00  0.00    +0.210 HD
ENDBRANCH  11  22
TORSDOF 1
ENDMDL
MODEL 7
REMARK VINA RESULT:    -9.770      2.499      6.925
REMARK INTER + INTRA:         -10.056
REMARK INTER:                 -10.056
REMARK INTRA:                   0.000
REMARK UNBOUND:                 0.000
REMARK  Name = C[C@]12CC[C@@H]3[C@H](CC(=O)[C@H]4C[C@@H](O)CC[C@@]43C)[C@@H]1CCC2=O ZINC000253504578
REMARK  3 active torsions:
REMARK  status: ('A' for Active; 'I' for Inactive)
REMARK    1  A    between atoms: C_1  and  C_2
REMARK    2  A    between atoms: C_12  and  O_13
REMARK    3  A    between atoms: C_16  and  C_17
REMARK                            x       y       z     vdW  Elec       q    Type
REMARK                         _______ _______ _______ _____ _____    ______ ____
ROOT
ATOM      1  C   UNL     1       5.283   4.587 -23.076  0.00  0.00    +0.019 C 
ATOM      2  C   UNL     1       4.442   3.638 -22.792  0.00  0.00    +0.029 C 
ATOM      3  C   UNL     1       3.883   4.728 -23.227  0.00  0.00    +0.015 C 
ATOM      4  C   UNL     1       2.590   4.794 -23.344  0.00  0.00    +0.005 C 
ATOM      5  C   UNL     1       1.856   3.769 -23.026  0.00  0.00    -0.001 C 
ATOM      6  C   UNL     1       2.415   2.679 -22.591  0.00  0.00    +0.004 C 
ATOM      7  C   UNL     1       1.681   1.654 -22.272  0.00  0.00    +0.078 C 
ATOM      8  C   UNL     1       0.388   1.719 -22.389  0.00  0.00    +0.137 C 
ATOM      9  C   UNL     1      -0.171   2.810 -22.824  0.00  0.00    +0.064 C 
ATOM     10  C   UNL     1      -1.464   2.875 -22.941  0.00  0.00    +0.043 C 
ATOM     11  C   UNL     1      -2.023   3.965 -23.376  0.00  0.00    +0.115 C 
ATOM     12  C   UNL     1      -1.289   4.990 -23.694  0.00  0.00    +0.032 C 
ATOM     13  C   UNL     1       0.004   4.924 -23.578  0.00  0.00    +0.010 C 
ATOM     14  O   UNL     1      -0.346   0.695 -22.071  0.00  0.00    -0.297 OA
ATOM     15  C   UNL     1       0.563   3.834 -23.142  0.00  0.00    -0.019 C 
ATOM     16  C   UNL     1       1.297   4.859 -23.461  0.00  0.00    +0.012 C 
ATOM     17  C   UNL     1       5.686   3.320 -22.588  0.00  0.00    +0.139 C 
ATOM     18  O   UNL     1       6.715   4.088 -22.792  0.00  0.00    -0.297 OA
ATOM     19  C   UNL     1       5.721   2.099 -22.143  0.00  0.00    +0.075 C 
ATOM     20  C   UNL     1       4.499   1.662 -22.073  0.00  0.00    +0.012 C 
ATOM     21  C   UNL     1       3.708   2.613 -22.474  0.00  0.00    +0.006 C 
ENDROOT
BRANCH  11  22
ATOM     22  O   UNL     1      -3.316   4.031 -23.493  0.00  0.00    -0.392 OA
ATOM     23  H   UNL     1      -3.710   3.192 -23.206  0.00  0.00    +0.210 HD
ENDBRANCH  11  22
TORSDOF 1
ENDMDL
MODEL 8
REMARK VINA RESULT:    -9.596      1.879      6.141
REMARK INTER + INTRA:          -9.876
REMARK INTER:                  -9.876
REMARK INTRA:                   0.000
REMARK UNBOUND:                 0.000
REMARK  Name = C[C@]12CC[C@@H]3[C@H](CC(=O)[C@H]4C[C@@H](O)CC[C@@]43C)[C@@H]1CCC2=O ZINC000253504578
REMARK  3 active torsions:
REMARK  status: ('A' for Active; 'I' for Inactive)
REMARK    1  A    between atoms: C_1  and  C_2
REMARK    2  A    between atoms: C_12  and  O_13
REMARK    3  A    between atoms: C_16  and  C_17
REMARK                            x       y       z     vdW  Elec       q    Type
REMARK                         _______ _______ _______ _____ _____    ______ ____
ROOT
ATOM      1  C   UNL     1       3.557   1.040 -20.716  0.00  0.00    +0.019 C 
ATOM      2  C   UNL     1       3.394   1.717 -21.813  0.00  0.00    +0.029 C 
ATOM      3  C   UNL     1       2.283   1.331 -21.259  0.00  0.00    +0.015 C 
ATOM      4  C   UNL     1       1.143   1.631 -21.809  0.00  0.00    +0.005 C 
ATOM      5  C   UNL     1       1.116   2.318 -22.912  0.00  0.00    -0.001 C 
ATOM      6  C   UNL     1       2.226   2.704 -23.466  0.00  0.00    +0.004 C 
ATOM      7  C   UNL     1       2.198   3.390 -24.570  0.00  0.00    +0.078 C 
ATOM      8  C   UNL     1       1.060   3.691 -25.120  0.00  0.00    +0.137 C 
ATOM      9  C   UNL     1      -0.052   3.305 -24.566  0.00  0.00    +0.064 C 
ATOM     10  C   UNL     1      -1.190   3.605 -25.115  0.00  0.00    +0.043 C 
ATOM     11  C   UNL     1      -2.301   3.219 -24.562  0.00  0.00    +0.115 C 
ATOM     12  C   UNL     1      -2.273   2.532 -23.458  0.00  0.00    +0.032 C 
ATOM     13  C   UNL     1      -1.135   2.232 -22.908  0.00  0.00    +0.010 C 
ATOM     14  O   UNL     1       1.031   4.377 -26.223  0.00  0.00    -0.297 OA
ATOM     15  C   UNL     1      -0.023   2.618 -23.462  0.00  0.00    -0.019 C 
ATOM     16  C   UNL     1       0.005   1.932 -22.358  0.00  0.00    +0.012 C 
ATOM     17  C   UNL     1       4.638   1.552 -21.474  0.00  0.00    +0.139 C 
ATOM     18  O   UNL     1       5.067   0.915 -20.425  0.00  0.00    -0.297 OA
ATOM     19  C   UNL     1       5.379   2.137 -22.369  0.00  0.00    +0.075 C 
ATOM     20  C   UNL     1       4.593   2.663 -23.260  0.00  0.00    +0.012 C 
ATOM     21  C   UNL     1       3.366   2.404 -22.917  0.00  0.00    +0.006 C 
ENDROOT
BRANCH  11  22
ATOM     22  O   UNL     1      -3.441   3.519 -25.111  0.00  0.00    -0.392 OA
ATOM     23  H   UNL     1      -4.113   3.631 -24.421  0.00  0.00    +0.210 HD
ENDBRANCH  11  22
TORSDOF 1
ENDMDL
