MODEL 1
REMARK VINA RESULT:    -8.856      0.000      0.000
REMARK INTER + INTRA:         -12.360
REMARK INTER:                 -12.072
REMARK INTRA:                  -0.289
REMARK UNBOUND:                -0.139
REMARK  Name = ZINC000004104885
REMARK  10 active torsions:
REMARK  status: ('A' for Active; 'I' for Inactive)
REMARK    1  A    between atoms: C_1  and  O_2
REMARK    2  A    between atoms: O_2  and  C_3
REMARK    3  A    between atoms: C_4  and  C_5
REMARK    4  A    between atoms: C_5  and  O_6
REMARK    5  A    between atoms: O_6  and  S_7
REMARK    6  A    between atoms: S_7  and  C_10
REMARK    7  A    between atoms: C_13  and  C_14
REMARK    8  A    between atoms: C_18  and  O_19
REMARK    9  A    between atoms: C_20  and  O_21
REMARK   10  A    between atoms: C_22  and  O_23
REMARK                            x       y       z     vdW  Elec       q    Type
REMARK                         _______ _______ _______ _____ _____    ______ ____
ROOT
ATOM      1  C   UNL     1       2.401   1.223 -23.209  0.00  0.00    +0.180 C 
ATOM      2  C   UNL     1       1.881   1.063 -22.028  0.00  0.00    +0.181 C 
ATOM      3  O   UNL     1       2.646   0.805 -21.010  0.00  0.00    -0.341 OA
ATOM      4  C   UNL     1       3.933   0.708 -21.172  0.00  0.00    +0.279 C 
ATOM      5  C   UNL     1       4.453   0.868 -22.352  0.00  0.00    +0.201 C 
ATOM      6  C   UNL     1       3.687   1.126 -23.370  0.00  0.00    +0.179 C 
ENDROOT
BRANCH   4   7
ATOM      7  O   UNL     1       4.698   0.450 -20.153  0.00  0.00    -0.365 OA
ATOM      8  H   UNL     1       4.333  -0.299 -19.656  0.00  0.00    +0.213 HD
ENDBRANCH   4   7
BRANCH   6   9
ATOM      9  O   UNL     1       4.208   1.287 -24.551  0.00  0.00    -0.386 OA
ATOM     10  H   UNL     1       3.500   1.332 -25.213  0.00  0.00    +0.210 HD
ENDBRANCH   6   9
BRANCH   5  11
ATOM     11  O   UNL     1       5.739   0.771 -22.514  0.00  0.00    -0.384 OA
ATOM     12  H   UNL     1       5.995  -0.165 -22.518  0.00  0.00    +0.210 HD
ENDBRANCH   5  11
BRANCH   1  14
ATOM     13  C   UNL     1       1.707   2.639 -24.817  0.00  0.00    +0.194 C 
ATOM     14  O   UNL     1       1.636   1.481 -24.227  0.00  0.00    -0.374 OA
ENDBRANCH   1  14
BRANCH   2  15
ATOM     15  C   UNL     1       0.595   1.160 -21.866  0.00  0.00    +0.228 C 
BRANCH  15  16
ATOM     16  O   UNL     1       0.061   2.310 -21.574  0.00  0.00    -0.232 OA
BRANCH  16  17
ATOM     17  S   UNL     1      -1.062   2.664 -22.126  0.00  0.00    +0.112 S 
ATOM     18  O   UNL     1      -1.610   1.556 -21.720  0.00  0.00    -0.142 OA
ATOM     19  O   UNL     1      -0.514   3.770 -22.531  0.00  0.00    -0.142 OA
BRANCH  17  20
ATOM     20  C   UNL     1      -2.184   3.018 -22.678  0.00  0.00    +0.117 A 
ATOM     21  C   UNL     1      -3.280   3.019 -21.978  0.00  0.00    +0.030 A 
ATOM     22  C   UNL     1      -4.403   3.373 -22.530  0.00  0.00    +0.005 A 
ATOM     23  C   UNL     1      -4.430   3.726 -23.781  0.00  0.00    -0.050 A 
ATOM     24  C   UNL     1      -3.333   3.725 -24.480  0.00  0.00    +0.005 A 
ATOM     25  C   UNL     1      -5.552   4.081 -24.332  0.00  0.00    +0.044 C 
ATOM     26  C   UNL     1      -2.211   3.371 -23.928  0.00  0.00    +0.030 A 
ENDBRANCH  17  20
ENDBRANCH  16  17
ENDBRANCH  15  16
ENDBRANCH   2  15
TORSDOF 8
ENDMDL
MODEL 2
REMARK VINA RESULT:    -8.749      1.673      3.082
REMARK INTER + INTRA:         -12.213
REMARK INTER:                 -11.946
REMARK INTRA:                  -0.266
REMARK UNBOUND:                -0.139
REMARK  Name = ZINC000004104885
REMARK  10 active torsions:
REMARK  status: ('A' for Active; 'I' for Inactive)
REMARK    1  A    between atoms: C_1  and  O_2
REMARK    2  A    between atoms: O_2  and  C_3
REMARK    3  A    between atoms: C_4  and  C_5
REMARK    4  A    between atoms: C_5  and  O_6
REMARK    5  A    between atoms: O_6  and  S_7
REMARK    6  A    between atoms: S_7  and  C_10
REMARK    7  A    between atoms: C_13  and  C_14
REMARK    8  A    between atoms: C_18  and  O_19
REMARK    9  A    between atoms: C_20  and  O_21
REMARK   10  A    between atoms: C_22  and  O_23
REMARK                            x       y       z     vdW  Elec       q    Type
REMARK                         _______ _______ _______ _____ _____    ______ ____
ROOT
ATOM      1  C   UNL     1       1.940   2.108 -22.947  0.00  0.00    +0.180 C 
ATOM      2  C   UNL     1       1.185   2.876 -23.675  0.00  0.00    +0.181 C 
ATOM      3  O   UNL     1       1.199   2.764 -24.970  0.00  0.00    -0.341 OA
ATOM      4  C   UNL     1       1.969   1.883 -25.538  0.00  0.00    +0.279 C 
ATOM      5  C   UNL     1       2.724   1.114 -24.810  0.00  0.00    +0.201 C 
ATOM      6  C   UNL     1       2.708   1.227 -23.515  0.00  0.00    +0.179 C 
ENDROOT
BRANCH   4   7
ATOM      7  O   UNL     1       1.983   1.770 -26.833  0.00  0.00    -0.365 OA
ATOM      8  H   UNL     1       1.387   2.430 -27.221  0.00  0.00    +0.213 HD
ENDBRANCH   4   7
BRANCH   6   9
ATOM      9  O   UNL     1       3.463   0.458 -22.786  0.00  0.00    -0.386 OA
ATOM     10  H   UNL     1       3.016   0.266 -21.948  0.00  0.00    +0.210 HD
ENDBRANCH   6   9
BRANCH   5  11
ATOM     11  O   UNL     1       3.493   0.233 -25.377  0.00  0.00    -0.384 OA
ATOM     12  H   UNL     1       3.008  -0.601 -25.479  0.00  0.00    +0.210 HD
ENDBRANCH   5  11
BRANCH   1  14
ATOM     13  C   UNL     1       1.082   1.522 -20.949  0.00  0.00    +0.194 C 
ATOM     14  O   UNL     1       1.925   2.220 -21.652  0.00  0.00    -0.374 OA
ENDBRANCH   1  14
BRANCH   2  15
ATOM     15  C   UNL     1       0.416   3.757 -23.108  0.00  0.00    +0.228 C 
BRANCH  15  16
ATOM     16  O   UNL     1      -0.630   4.209 -23.737  0.00  0.00    -0.232 OA
BRANCH  16  17
ATOM     17  S   UNL     1      -1.823   3.909 -23.313  0.00  0.00    +0.112 S 
ATOM     18  O   UNL     1      -1.999   3.145 -24.351  0.00  0.00    -0.142 OA
ATOM     19  O   UNL     1      -1.646   4.673 -22.277  0.00  0.00    -0.142 OA
BRANCH  17  20
ATOM     20  C   UNL     1      -3.014   3.610 -22.890  0.00  0.00    +0.117 A 
ATOM     21  C   UNL     1      -3.163   2.967 -21.770  0.00  0.00    +0.030 A 
ATOM     22  C   UNL     1      -4.355   2.667 -21.345  0.00  0.00    +0.005 A 
ATOM     23  C   UNL     1      -5.398   3.011 -22.041  0.00  0.00    -0.050 A 
ATOM     24  C   UNL     1      -5.249   3.655 -23.162  0.00  0.00    +0.005 A 
ATOM     25  C   UNL     1      -6.590   2.712 -21.618  0.00  0.00    +0.044 C 
ATOM     26  C   UNL     1      -4.057   3.954 -23.586  0.00  0.00    +0.030 A 
ENDBRANCH  17  20
ENDBRANCH  16  17
ENDBRANCH  15  16
ENDBRANCH   2  15
TORSDOF 8
ENDMDL
MODEL 3
REMARK VINA RESULT:    -8.623      2.043      3.045
REMARK INTER + INTRA:         -12.039
REMARK INTER:                 -11.793
REMARK INTRA:                  -0.246
REMARK UNBOUND:                -0.139
REMARK  Name = ZINC000004104885
REMARK  10 active torsions:
REMARK  status: ('A' for Active; 'I' for Inactive)
REMARK    1  A    between atoms: C_1  and  O_2
REMARK    2  A    between atoms: O_2  and  C_3
REMARK    3  A    between atoms: C_4  and  C_5
REMARK    4  A    between atoms: C_5  and  O_6
REMARK    5  A    between atoms: O_6  and  S_7
REMARK    6  A    between atoms: S_7  and  C_10
REMARK    7  A    between atoms: C_13  and  C_14
REMARK    8  A    between atoms: C_18  and  O_19
REMARK    9  A    between atoms: C_20  and  O_21
REMARK   10  A    between atoms: C_22  and  O_23
REMARK                            x       y       z     vdW  Elec       q    Type
REMARK                         _______ _______ _______ _____ _____    ______ ____
ROOT
ATOM      1  C   UNL     1       2.636   3.850 -23.195  0.00  0.00    +0.180 C 
ATOM      2  C   UNL     1       1.760   3.577 -24.116  0.00  0.00    +0.181 C 
ATOM      3  O   UNL     1       1.842   2.464 -24.781  0.00  0.00    -0.341 OA
ATOM      4  C   UNL     1       2.800   1.623 -24.526  0.00  0.00    +0.279 C 
ATOM      5  C   UNL     1       3.676   1.896 -23.606  0.00  0.00    +0.201 C 
ATOM      6  C   UNL     1       3.593   3.010 -22.940  0.00  0.00    +0.179 C 
ENDROOT
BRANCH   4   7
ATOM      7  O   UNL     1       2.882   0.509 -25.192  0.00  0.00    -0.365 OA
ATOM      8  H   UNL     1       3.797   0.188 -25.173  0.00  0.00    +0.213 HD
ENDBRANCH   4   7
BRANCH   6   9
ATOM      9  O   UNL     1       4.470   3.283 -22.019  0.00  0.00    -0.386 OA
ATOM     10  H   UNL     1       5.289   2.794 -22.197  0.00  0.00    +0.210 HD
ENDBRANCH   6   9
BRANCH   5  11
ATOM     11  O   UNL     1       4.634   1.055 -23.350  0.00  0.00    -0.384 OA
ATOM     12  H   UNL     1       4.736   0.444 -24.097  0.00  0.00    +0.210 HD
ENDBRANCH   5  11
BRANCH   1  14
ATOM     13  C   UNL     1       3.291   5.980 -22.869  0.00  0.00    +0.194 C 
ATOM     14  O   UNL     1       2.554   4.964 -22.529  0.00  0.00    -0.374 OA
ENDBRANCH   1  14
BRANCH   2  15
ATOM     15  C   UNL     1       0.802   4.418 -24.371  0.00  0.00    +0.228 C 
BRANCH  15  16
ATOM     16  O   UNL     1      -0.242   4.030 -25.044  0.00  0.00    -0.232 OA
BRANCH  16  17
ATOM     17  S   UNL     1      -1.379   3.857 -24.437  0.00  0.00    +0.112 S 
ATOM     18  O   UNL     1      -1.660   2.876 -25.244  0.00  0.00    -0.142 OA
ATOM     19  O   UNL     1      -1.098   4.837 -23.632  0.00  0.00    -0.142 OA
BRANCH  17  20
ATOM     20  C   UNL     1      -2.515   3.684 -23.831  0.00  0.00    +0.117 A 
ATOM     21  C   UNL     1      -3.620   4.062 -24.401  0.00  0.00    +0.030 A 
ATOM     22  C   UNL     1      -4.758   3.890 -23.794  0.00  0.00    +0.005 A 
ATOM     23  C   UNL     1      -4.789   3.339 -22.617  0.00  0.00    -0.050 A 
ATOM     24  C   UNL     1      -3.683   2.961 -22.047  0.00  0.00    +0.005 A 
ATOM     25  C   UNL     1      -5.925   3.166 -22.010  0.00  0.00    +0.044 C 
ATOM     26  C   UNL     1      -2.547   3.133 -22.653  0.00  0.00    +0.030 A 
ENDBRANCH  17  20
ENDBRANCH  16  17
ENDBRANCH  15  16
ENDBRANCH   2  15
TORSDOF 8
ENDMDL
MODEL 4
REMARK VINA RESULT:    -8.496      2.379      3.094
REMARK INTER + INTRA:         -11.863
REMARK INTER:                 -11.560
REMARK INTRA:                  -0.303
REMARK UNBOUND:                -0.139
REMARK  Name = ZINC000004104885
REMARK  10 active torsions:
REMARK  status: ('A' for Active; 'I' for Inactive)
REMARK    1  A    between atoms: C_1  and  O_2
REMARK    2  A    between atoms: O_2  and  C_3
REMARK    3  A    between atoms: C_4  and  C_5
REMARK    4  A    between atoms: C_5  and  O_6
REMARK    5  A    between atoms: O_6  and  S_7
REMARK    6  A    between atoms: S_7  and  C_10
REMARK    7  A    between atoms: C_13  and  C_14
REMARK    8  A    between atoms: C_18  and  O_19
REMARK    9  A    between atoms: C_20  and  O_21
REMARK   10  A    between atoms: C_22  and  O_23
REMARK                            x       y       z     vdW  Elec       q    Type
REMARK                         _______ _______ _______ _____ _____    ______ ____
ROOT
ATOM      1  C   UNL     1       3.309   2.995 -23.642  0.00  0.00    +0.180 C 
ATOM      2  C   UNL     1       2.392   3.811 -23.213  0.00  0.00    +0.181 C 
ATOM      3  O   UNL     1       2.719   5.002 -22.810  0.00  0.00    -0.341 OA
ATOM      4  C   UNL     1       3.963   5.379 -22.836  0.00  0.00    +0.279 C 
ATOM      5  C   UNL     1       4.880   4.563 -23.265  0.00  0.00    +0.201 C 
ATOM      6  C   UNL     1       4.552   3.372 -23.668  0.00  0.00    +0.179 C 
ENDROOT
BRANCH   4   7
ATOM      7  O   UNL     1       4.290   6.571 -22.433  0.00  0.00    -0.365 OA
ATOM      8  H   UNL     1       3.493   7.045 -22.147  0.00  0.00    +0.213 HD
ENDBRANCH   4   7
BRANCH   6   9
ATOM      9  O   UNL     1       5.469   2.555 -24.097  0.00  0.00    -0.386 OA
ATOM     10  H   UNL     1       6.309   2.749 -23.651  0.00  0.00    +0.210 HD
ENDBRANCH   6   9
BRANCH   5  11
ATOM     11  O   UNL     1       6.124   4.939 -23.291  0.00  0.00    -0.384 OA
ATOM     12  H   UNL     1       6.687   4.217 -22.970  0.00  0.00    +0.210 HD
ENDBRANCH   5  11
BRANCH   1  14
ATOM     13  C   UNL     1       3.104   0.789 -23.240  0.00  0.00    +0.194 C 
ATOM     14  O   UNL     1       2.982   1.803 -24.045  0.00  0.00    -0.374 OA
ENDBRANCH   1  14
BRANCH   2  15
ATOM     15  C   UNL     1       1.148   3.435 -23.188  0.00  0.00    +0.228 C 
BRANCH  15  16
ATOM     16  O   UNL     1       0.202   4.298 -23.417  0.00  0.00    -0.232 OA
BRANCH  16  17
ATOM     17  S   UNL     1      -1.023   4.025 -23.079  0.00  0.00    +0.112 S 
ATOM     18  O   UNL     1      -1.072   5.117 -22.374  0.00  0.00    -0.142 OA
ATOM     19  O   UNL     1      -0.974   2.934 -23.783  0.00  0.00    -0.142 OA
BRANCH  17  20
ATOM     20  C   UNL     1      -2.248   3.752 -22.741  0.00  0.00    +0.117 A 
ATOM     21  C   UNL     1      -3.188   3.766 -23.639  0.00  0.00    +0.030 A 
ATOM     22  C   UNL     1      -4.414   3.493 -23.301  0.00  0.00    +0.005 A 
ATOM     23  C   UNL     1      -4.699   3.205 -22.066  0.00  0.00    -0.050 A 
ATOM     24  C   UNL     1      -3.758   3.190 -21.168  0.00  0.00    +0.005 A 
ATOM     25  C   UNL     1      -5.924   2.931 -21.728  0.00  0.00    +0.044 C 
ATOM     26  C   UNL     1      -2.533   3.464 -21.506  0.00  0.00    +0.030 A 
ENDBRANCH  17  20
ENDBRANCH  16  17
ENDBRANCH  15  16
ENDBRANCH   2  15
TORSDOF 8
ENDMDL
MODEL 5
REMARK VINA RESULT:    -8.431      2.621      7.168
REMARK INTER + INTRA:         -11.774
REMARK INTER:                 -11.597
REMARK INTRA:                  -0.176
REMARK UNBOUND:                -0.139
REMARK  Name = ZINC000004104885
REMARK  10 active torsions:
REMARK  status: ('A' for Active; 'I' for Inactive)
REMARK    1  A    between atoms: C_1  and  O_2
REMARK    2  A    between atoms: O_2  and  C_3
REMARK    3  A    between atoms: C_4  and  C_5
REMARK    4  A    between atoms: C_5  and  O_6
REMARK    5  A    between atoms: O_6  and  S_7
REMARK    6  A    between atoms: S_7  and  C_10
REMARK    7  A    between atoms: C_13  and  C_14
REMARK    8  A    between atoms: C_18  and  O_19
REMARK    9  A    between atoms: C_20  and  O_21
REMARK   10  A    between atoms: C_22  and  O_23
REMARK                            x       y       z     vdW  Elec       q    Type
REMARK                         _______ _______ _______ _____ _____    ______ ____
ROOT
ATOM      1  C   UNL     1      -3.372   3.062 -23.109  0.00  0.00    +0.180 C 
ATOM      2  C   UNL     1      -2.220   2.696 -23.589  0.00  0.00    +0.181 C 
ATOM      3  O   UNL     1      -1.960   2.864 -24.851  0.00  0.00    -0.341 OA
ATOM      4  C   UNL     1      -2.850   3.397 -25.634  0.00  0.00    +0.279 C 
ATOM      5  C   UNL     1      -4.002   3.763 -25.154  0.00  0.00    +0.201 C 
ATOM      6  C   UNL     1      -4.262   3.594 -23.892  0.00  0.00    +0.179 C 
ENDROOT
BRANCH   4   7
ATOM      7  O   UNL     1      -2.589   3.565 -26.897  0.00  0.00    -0.365 OA
ATOM      8  H   UNL     1      -3.258   4.147 -27.290  0.00  0.00    +0.213 HD
ENDBRANCH   4   7
BRANCH   6   9
ATOM      9  O   UNL     1      -5.414   3.960 -23.411  0.00  0.00    -0.386 OA
ATOM     10  H   UNL     1      -5.301   4.265 -22.497  0.00  0.00    +0.210 HD
ENDBRANCH   6   9
BRANCH   5  11
ATOM     11  O   UNL     1      -4.892   4.296 -25.937  0.00  0.00    -0.384 OA
ATOM     12  H   UNL     1      -5.754   3.878 -25.778  0.00  0.00    +0.210 HD
ENDBRANCH   5  11
BRANCH   1  14
ATOM     13  C   UNL     1      -3.336   3.829 -20.992  0.00  0.00    +0.194 C 
ATOM     14  O   UNL     1      -3.633   2.894 -21.847  0.00  0.00    -0.374 OA
ENDBRANCH   1  14
BRANCH   2  15
ATOM     15  C   UNL     1      -1.330   2.163 -22.807  0.00  0.00    +0.228 C 
BRANCH  15  16
ATOM     16  O   UNL     1      -0.252   1.637 -23.311  0.00  0.00    -0.232 OA
BRANCH  16  17
ATOM     17  S   UNL     1       0.880   2.270 -23.228  0.00  0.00    +0.112 S 
ATOM     18  O   UNL     1       0.600   2.612 -22.005  0.00  0.00    -0.142 OA
ATOM     19  O   UNL     1       1.161   1.928 -24.451  0.00  0.00    -0.142 OA
BRANCH  17  20
ATOM     20  C   UNL     1       2.013   2.903 -23.146  0.00  0.00    +0.117 A 
ATOM     21  C   UNL     1       3.104   2.250 -22.877  0.00  0.00    +0.030 A 
ATOM     22  C   UNL     1       4.237   2.882 -22.795  0.00  0.00    +0.005 A 
ATOM     23  C   UNL     1       4.278   4.168 -22.981  0.00  0.00    -0.050 A 
ATOM     24  C   UNL     1       3.186   4.822 -23.249  0.00  0.00    +0.005 A 
ATOM     25  C   UNL     1       5.410   4.801 -22.898  0.00  0.00    +0.044 C 
ATOM     26  C   UNL     1       2.054   4.189 -23.332  0.00  0.00    +0.030 A 
ENDBRANCH  17  20
ENDBRANCH  16  17
ENDBRANCH  15  16
ENDBRANCH   2  15
TORSDOF 8
ENDMDL
MODEL 6
REMARK VINA RESULT:    -8.370      1.237      2.331
REMARK INTER + INTRA:         -11.689
REMARK INTER:                 -11.331
REMARK INTRA:                  -0.358
REMARK UNBOUND:                -0.139
REMARK  Name = ZINC000004104885
REMARK  10 active torsions:
REMARK  status: ('A' for Active; 'I' for Inactive)
REMARK    1  A    between atoms: C_1  and  O_2
REMARK    2  A    between atoms: O_2  and  C_3
REMARK    3  A    between atoms: C_4  and  C_5
REMARK    4  A    between atoms: C_5  and  O_6
REMARK    5  A    between atoms: O_6  and  S_7
REMARK    6  A    between atoms: S_7  and  C_10
REMARK    7  A    between atoms: C_13  and  C_14
REMARK    8  A    between atoms: C_18  and  O_19
REMARK    9  A    between atoms: C_20  and  O_21
REMARK   10  A    between atoms: C_22  and  O_23
REMARK                            x       y       z     vdW  Elec       q    Type
REMARK                         _______ _______ _______ _____ _____    ______ ____
ROOT
ATOM      1  C   UNL     1       2.532   1.367 -22.121  0.00  0.00    +0.180 C 
ATOM      2  C   UNL     1       2.328   2.028 -23.221  0.00  0.00    +0.181 C 
ATOM      3  O   UNL     1       3.331   2.553 -23.860  0.00  0.00    -0.341 OA
ATOM      4  C   UNL     1       4.539   2.417 -23.398  0.00  0.00    +0.279 C 
ATOM      5  C   UNL     1       4.743   1.756 -22.297  0.00  0.00    +0.201 C 
ATOM      6  C   UNL     1       3.738   1.231 -21.659  0.00  0.00    +0.179 C 
ENDROOT
BRANCH   4   7
ATOM      7  O   UNL     1       5.542   2.942 -24.036  0.00  0.00    -0.365 OA
ATOM      8  H   UNL     1       6.252   2.285 -24.118  0.00  0.00    +0.213 HD
ENDBRANCH   4   7
BRANCH   6   9
ATOM      9  O   UNL     1       3.942   0.570 -20.558  0.00  0.00    -0.386 OA
ATOM     10  H   UNL     1       4.426  -0.247 -20.756  0.00  0.00    +0.210 HD
ENDBRANCH   6   9
BRANCH   5  11
ATOM     11  O   UNL     1       5.950   1.619 -21.835  0.00  0.00    -0.384 OA
ATOM     12  H   UNL     1       6.259   2.469 -21.482  0.00  0.00    +0.210 HD
ENDBRANCH   5  11
BRANCH   1  14
ATOM     13  C   UNL     1       0.932   1.516 -20.543  0.00  0.00    +0.194 C 
ATOM     14  O   UNL     1       1.528   0.843 -21.482  0.00  0.00    -0.374 OA
ENDBRANCH   1  14
BRANCH   2  15
ATOM     15  C   UNL     1       1.121   2.165 -23.684  0.00  0.00    +0.228 C 
BRANCH  15  16
ATOM     16  O   UNL     1       0.476   3.280 -23.499  0.00  0.00    -0.232 OA
BRANCH  16  17
ATOM     17  S   UNL     1      -0.793   3.257 -23.214  0.00  0.00    +0.112 S 
ATOM     18  O   UNL     1      -0.874   2.042 -23.672  0.00  0.00    -0.142 OA
ATOM     19  O   UNL     1      -0.711   4.470 -22.756  0.00  0.00    -0.142 OA
BRANCH  17  20
ATOM     20  C   UNL     1      -2.061   3.234 -22.928  0.00  0.00    +0.117 A 
ATOM     21  C   UNL     1      -2.456   2.822 -21.761  0.00  0.00    +0.030 A 
ATOM     22  C   UNL     1      -3.725   2.800 -21.475  0.00  0.00    +0.005 A 
ATOM     23  C   UNL     1      -4.597   3.189 -22.357  0.00  0.00    -0.050 A 
ATOM     24  C   UNL     1      -4.200   3.601 -23.525  0.00  0.00    +0.005 A 
ATOM     25  C   UNL     1      -5.864   3.167 -22.071  0.00  0.00    +0.044 C 
ATOM     26  C   UNL     1      -2.932   3.624 -23.810  0.00  0.00    +0.030 A 
ENDBRANCH  17  20
ENDBRANCH  16  17
ENDBRANCH  15  16
ENDBRANCH   2  15
TORSDOF 8
ENDMDL
MODEL 7
REMARK VINA RESULT:    -8.341      2.341      7.185
REMARK INTER + INTRA:         -11.649
REMARK INTER:                 -11.297
REMARK INTRA:                  -0.353
REMARK UNBOUND:                -0.139
REMARK  Name = ZINC000004104885
REMARK  10 active torsions:
REMARK  status: ('A' for Active; 'I' for Inactive)
REMARK    1  A    between atoms: C_1  and  O_2
REMARK    2  A    between atoms: O_2  and  C_3
REMARK    3  A    between atoms: C_4  and  C_5
REMARK    4  A    between atoms: C_5  and  O_6
REMARK    5  A    between atoms: O_6  and  S_7
REMARK    6  A    between atoms: S_7  and  C_10
REMARK    7  A    between atoms: C_13  and  C_14
REMARK    8  A    between atoms: C_18  and  O_19
REMARK    9  A    between atoms: C_20  and  O_21
REMARK   10  A    between atoms: C_22  and  O_23
REMARK                            x       y       z     vdW  Elec       q    Type
REMARK                         _______ _______ _______ _____ _____    ______ ____
ROOT
ATOM      1  C   UNL     1      -3.341   3.592 -24.156  0.00  0.00    +0.180 C 
ATOM      2  C   UNL     1      -2.494   2.885 -23.469  0.00  0.00    +0.181 C 
ATOM      3  O   UNL     1      -2.830   2.422 -22.302  0.00  0.00    -0.341 OA
ATOM      4  C   UNL     1      -4.014   2.665 -21.821  0.00  0.00    +0.279 C 
ATOM      5  C   UNL     1      -4.861   3.371 -22.509  0.00  0.00    +0.201 C 
ATOM      6  C   UNL     1      -4.524   3.834 -23.676  0.00  0.00    +0.179 C 
ENDROOT
BRANCH   4   7
ATOM      7  O   UNL     1      -4.349   2.201 -20.654  0.00  0.00    -0.365 OA
ATOM      8  H   UNL     1      -3.670   1.581 -20.345  0.00  0.00    +0.213 HD
ENDBRANCH   4   7
BRANCH   6   9
ATOM      9  O   UNL     1      -5.372   4.542 -24.364  0.00  0.00    -0.386 OA
ATOM     10  H   UNL     1      -5.625   5.327 -23.855  0.00  0.00    +0.210 HD
ENDBRANCH   6   9
BRANCH   5  11
ATOM     11  O   UNL     1      -6.044   3.614 -22.029  0.00  0.00    -0.384 OA
ATOM     12  H   UNL     1      -6.698   3.572 -22.744  0.00  0.00    +0.210 HD
ENDBRANCH   5  11
BRANCH   1  14
ATOM     13  C   UNL     1      -3.356   3.417 -26.401  0.00  0.00    +0.194 C 
ATOM     14  O   UNL     1      -3.006   4.055 -25.323  0.00  0.00    -0.374 OA
ENDBRANCH   1  14
BRANCH   2  15
ATOM     15  C   UNL     1      -1.311   2.642 -23.948  0.00  0.00    +0.228 C 
BRANCH  15  16
ATOM     16  O   UNL     1      -0.460   1.941 -23.257  0.00  0.00    -0.232 OA
BRANCH  16  17
ATOM     17  S   UNL     1       0.799   2.265 -23.255  0.00  0.00    +0.112 S 
ATOM     18  O   UNL     1       0.798   2.279 -24.555  0.00  0.00    -0.142 OA
ATOM     19  O   UNL     1       0.800   2.250 -21.955  0.00  0.00    -0.142 OA
BRANCH  17  20
ATOM     20  C   UNL     1       2.058   2.589 -23.252  0.00  0.00    +0.117 A 
ATOM     21  C   UNL     1       2.406   3.841 -23.240  0.00  0.00    +0.030 A 
ATOM     22  C   UNL     1       3.666   4.165 -23.237  0.00  0.00    +0.005 A 
ATOM     23  C   UNL     1       4.576   3.237 -23.246  0.00  0.00    -0.050 A 
ATOM     24  C   UNL     1       4.227   1.984 -23.259  0.00  0.00    +0.005 A 
ATOM     25  C   UNL     1       5.834   3.561 -23.243  0.00  0.00    +0.044 C 
ATOM     26  C   UNL     1       2.968   1.660 -23.261  0.00  0.00    +0.030 A 
ENDBRANCH  17  20
ENDBRANCH  16  17
ENDBRANCH  15  16
ENDBRANCH   2  15
TORSDOF 8
ENDMDL
MODEL 8
REMARK VINA RESULT:    -7.962      2.092      7.096
REMARK INTER + INTRA:         -11.127
REMARK INTER:                 -10.988
REMARK INTRA:                  -0.139
REMARK UNBOUND:                -0.139
REMARK  Name = ZINC000004104885
REMARK  10 active torsions:
REMARK  status: ('A' for Active; 'I' for Inactive)
REMARK    1  A    between atoms: C_1  and  O_2
REMARK    2  A    between atoms: O_2  and  C_3
REMARK    3  A    between atoms: C_4  and  C_5
REMARK    4  A    between atoms: C_5  and  O_6
REMARK    5  A    between atoms: O_6  and  S_7
REMARK    6  A    between atoms: S_7  and  C_10
REMARK    7  A    between atoms: C_13  and  C_14
REMARK    8  A    between atoms: C_18  and  O_19
REMARK    9  A    between atoms: C_20  and  O_21
REMARK   10  A    between atoms: C_22  and  O_23
REMARK                            x       y       z     vdW  Elec       q    Type
REMARK                         _______ _______ _______ _____ _____    ______ ____
ROOT
ATOM      1  C   UNL     1      -2.466   3.665 -23.156  0.00  0.00    +0.180 C 
ATOM      2  C   UNL     1      -2.491   2.940 -22.077  0.00  0.00    +0.181 C 
ATOM      3  O   UNL     1      -3.628   2.584 -21.559  0.00  0.00    -0.341 OA
ATOM      4  C   UNL     1      -4.742   2.952 -22.120  0.00  0.00    +0.279 C 
ATOM      5  C   UNL     1      -4.718   3.677 -23.199  0.00  0.00    +0.201 C 
ATOM      6  C   UNL     1      -3.579   4.033 -23.716  0.00  0.00    +0.179 C 
ENDROOT
BRANCH   4   7
ATOM      7  O   UNL     1      -5.880   2.596 -21.602  0.00  0.00    -0.365 OA
ATOM      8  H   UNL     1      -6.575   2.658 -22.276  0.00  0.00    +0.213 HD
ENDBRANCH   4   7
BRANCH   6   9
ATOM      9  O   UNL     1      -3.555   4.759 -24.796  0.00  0.00    -0.386 OA
ATOM     10  H   UNL     1      -3.918   5.637 -24.603  0.00  0.00    +0.210 HD
ENDBRANCH   6   9
BRANCH   5  11
ATOM     11  O   UNL     1      -5.831   4.046 -23.760  0.00  0.00    -0.384 OA
ATOM     12  H   UNL     1      -5.717   4.923 -24.158  0.00  0.00    +0.210 HD
ENDBRANCH   5  11
BRANCH   1  14
ATOM     13  C   UNL     1      -0.739   5.106 -23.263  0.00  0.00    +0.194 C 
ATOM     14  O   UNL     1      -1.329   4.022 -23.674  0.00  0.00    -0.374 OA
ENDBRANCH   1  14
BRANCH   2  15
ATOM     15  C   UNL     1      -1.378   2.572 -21.516  0.00  0.00    +0.228 C 
BRANCH  15  16
ATOM     16  O   UNL     1      -0.713   1.560 -21.993  0.00  0.00    -0.232 OA
BRANCH  16  17
ATOM     17  S   UNL     1       0.585   1.610 -22.063  0.00  0.00    +0.112 S 
ATOM     18  O   UNL     1       0.660   1.475 -20.772  0.00  0.00    -0.142 OA
ATOM     19  O   UNL     1       0.508   1.746 -23.354  0.00  0.00    -0.142 OA
BRANCH  17  20
ATOM     20  C   UNL     1       1.881   1.660 -22.135  0.00  0.00    +0.117 A 
ATOM     21  C   UNL     1       2.589   0.608 -21.848  0.00  0.00    +0.030 A 
ATOM     22  C   UNL     1       3.886   0.658 -21.920  0.00  0.00    +0.005 A 
ATOM     23  C   UNL     1       4.476   1.760 -22.277  0.00  0.00    -0.050 A 
ATOM     24  C   UNL     1       3.767   2.813 -22.563  0.00  0.00    +0.005 A 
ATOM     25  C   UNL     1       5.772   1.811 -22.348  0.00  0.00    +0.044 C 
ATOM     26  C   UNL     1       2.470   2.763 -22.492  0.00  0.00    +0.030 A 
ENDBRANCH  17  20
ENDBRANCH  16  17
ENDBRANCH  15  16
ENDBRANCH   2  15
TORSDOF 8
ENDMDL
MODEL 9
REMARK VINA RESULT:    -7.946      2.287      3.305
REMARK INTER + INTRA:         -11.104
REMARK INTER:                 -10.726
REMARK INTRA:                  -0.378
REMARK UNBOUND:                -0.139
REMARK  Name = ZINC000004104885
REMARK  10 active torsions:
REMARK  status: ('A' for Active; 'I' for Inactive)
REMARK    1  A    between atoms: C_1  and  O_2
REMARK    2  A    between atoms: O_2  and  C_3
REMARK    3  A    between atoms: C_4  and  C_5
REMARK    4  A    between atoms: C_5  and  O_6
REMARK    5  A    between atoms: O_6  and  S_7
REMARK    6  A    between atoms: S_7  and  C_10
REMARK    7  A    between atoms: C_13  and  C_14
REMARK    8  A    between atoms: C_18  and  O_19
REMARK    9  A    between atoms: C_20  and  O_21
REMARK   10  A    between atoms: C_22  and  O_23
REMARK                            x       y       z     vdW  Elec       q    Type
REMARK                         _______ _______ _______ _____ _____    ______ ____
ROOT
ATOM      1  C   UNL     1       4.155   2.526 -21.762  0.00  0.00    +0.180 C 
ATOM      2  C   UNL     1       3.822   3.278 -22.769  0.00  0.00    +0.181 C 
ATOM      3  O   UNL     1       4.684   4.112 -23.270  0.00  0.00    -0.341 OA
ATOM      4  C   UNL     1       5.879   4.195 -22.764  0.00  0.00    +0.279 C 
ATOM      5  C   UNL     1       6.212   3.443 -21.757  0.00  0.00    +0.201 C 
ATOM      6  C   UNL     1       5.349   2.608 -21.257  0.00  0.00    +0.179 C 
ENDROOT
BRANCH   4   7
ATOM      7  O   UNL     1       6.740   5.029 -23.265  0.00  0.00    -0.365 OA
ATOM      8  H   UNL     1       6.270   5.769 -23.681  0.00  0.00    +0.213 HD
ENDBRANCH   4   7
BRANCH   6   9
ATOM      9  O   UNL     1       5.682   1.855 -20.250  0.00  0.00    -0.386 OA
ATOM     10  H   UNL     1       5.758   0.935 -20.545  0.00  0.00    +0.210 HD
ENDBRANCH   6   9
BRANCH   5  11
ATOM     11  O   UNL     1       7.406   3.525 -21.252  0.00  0.00    -0.384 OA
ATOM     12  H   UNL     1       8.051   3.174 -21.886  0.00  0.00    +0.210 HD
ENDBRANCH   5  11
BRANCH   1  14
ATOM     13  C   UNL     1       3.308   0.443 -21.629  0.00  0.00    +0.194 C 
ATOM     14  O   UNL     1       3.293   1.691 -21.261  0.00  0.00    -0.374 OA
ENDBRANCH   1  14
BRANCH   2  15
ATOM     15  C   UNL     1       2.628   3.196 -23.274  0.00  0.00    +0.228 C 
BRANCH  15  16
ATOM     16  O   UNL     1       1.726   4.079 -22.960  0.00  0.00    -0.232 OA
BRANCH  16  17
ATOM     17  S   UNL     1       0.539   4.012 -23.486  0.00  0.00    +0.112 S 
ATOM     18  O   UNL     1       0.729   5.162 -24.062  0.00  0.00    -0.142 OA
ATOM     19  O   UNL     1       0.349   2.862 -22.911  0.00  0.00    -0.142 OA
BRANCH  17  20
ATOM     20  C   UNL     1      -0.648   3.944 -24.012  0.00  0.00    +0.117 A 
ATOM     21  C   UNL     1      -1.689   4.288 -23.314  0.00  0.00    +0.030 A 
ATOM     22  C   UNL     1      -2.876   4.221 -23.840  0.00  0.00    +0.005 A 
ATOM     23  C   UNL     1      -3.022   3.808 -25.064  0.00  0.00    -0.050 A 
ATOM     24  C   UNL     1      -1.980   3.464 -25.763  0.00  0.00    +0.005 A 
ATOM     25  C   UNL     1      -4.209   3.741 -25.590  0.00  0.00    +0.044 C 
ATOM     26  C   UNL     1      -0.794   3.532 -25.237  0.00  0.00    +0.030 A 
ENDBRANCH  17  20
ENDBRANCH  16  17
ENDBRANCH  15  16
ENDBRANCH   2  15
TORSDOF 8
ENDMDL
