MODEL 1
REMARK VINA RESULT:   -11.069      0.000      0.000
REMARK INTER + INTRA:         -12.638
REMARK INTER:                 -12.771
REMARK INTRA:                   0.133
REMARK UNBOUND:                 0.048
REMARK  Name = ZINC000036043325
REMARK  6 active torsions:
REMARK  status: ('A' for Active; 'I' for Inactive)
REMARK    1  A    between atoms: C_1  and  C_2
REMARK    2  A    between atoms: C_2  and  C_3
REMARK    3  A    between atoms: C_3  and  O_4
REMARK    4  A    between atoms: C_13  and  O_14
REMARK    5  A    between atoms: C_17  and  C_18
REMARK    6  A    between atoms: C_22  and  C_23
REMARK                            x       y       z     vdW  Elec       q    Type
REMARK                         _______ _______ _______ _____ _____    ______ ____
ROOT
ATOM      1  C   UNL     1      -4.374   3.280 -22.589  0.00  0.00    +0.071 C 
ATOM      2  C   UNL     1      -4.436   2.772 -21.382  0.00  0.00    +0.035 C 
ATOM      3  C   UNL     1      -3.238   2.341 -21.063  0.00  0.00    +0.007 C 
ATOM      4  C   UNL     1      -2.436   2.582 -22.072  0.00  0.00    +0.001 C 
ATOM      5  C   UNL     1      -1.161   2.348 -22.251  0.00  0.00    +0.000 C 
ATOM      6  C   UNL     1      -0.462   1.766 -21.302  0.00  0.00    +0.031 C 
ATOM      7  C   UNL     1       0.815   1.531 -21.480  0.00  0.00    -0.027 C 
ATOM      8  C   UNL     1       1.395   1.875 -22.603  0.00  0.00    -0.065 C 
ATOM      9  C   UNL     1       2.674   1.640 -22.782  0.00  0.00    +0.062 C 
ATOM     10  C   UNL     1       3.254   1.985 -23.905  0.00  0.00    +0.119 C 
ATOM     11  C   UNL     1       2.559   2.566 -24.856  0.00  0.00    +0.032 C 
ATOM     12  C   UNL     1       1.279   2.801 -24.675  0.00  0.00    +0.014 C 
ATOM     13  C   UNL     1       0.699   2.457 -23.552  0.00  0.00    -0.008 C 
ATOM     14  C   UNL     1       0.001   3.037 -24.499  0.00  0.00    +0.016 C 
ATOM     15  C   UNL     1      -0.580   2.692 -23.375  0.00  0.00    +0.003 C 
ATOM     16  C   UNL     1      -1.279   3.273 -24.323  0.00  0.00    +0.005 C 
ATOM     17  C   UNL     1      -2.556   3.508 -24.143  0.00  0.00    +0.010 C 
ATOM     18  C   UNL     1      -3.137   3.164 -23.020  0.00  0.00    -0.000 C 
ATOM     19  C   UNL     1      -3.860   3.733 -23.927  0.00  0.00    +0.014 C 
ENDROOT
BRANCH   1  21
ATOM     20  C   UNL     1      -6.383   2.629 -21.723  0.00  0.00    +0.007 C 
ATOM     21  C   UNL     1      -5.656   3.497 -22.367  0.00  0.00    +0.032 C 
ENDBRANCH   1  21
BRANCH  10  22
ATOM     22  O   UNL     1       4.534   1.749 -24.084  0.00  0.00    -0.391 OA
ATOM     23  H   UNL     1       4.925   1.437 -23.253  0.00  0.00    +0.210 HD
ENDBRANCH  10  22
BRANCH   1  24
ATOM     24  O   UNL     1      -4.653   3.727 -23.464  0.00  0.00    -0.388 OA
ATOM     25  H   UNL     1      -5.622   3.745 -23.523  0.00  0.00    +0.210 HD
ENDBRANCH   1  24
TORSDOF 3
ENDMDL
MODEL 2
REMARK VINA RESULT:   -10.919      0.946      6.513
REMARK INTER + INTRA:         -12.466
REMARK INTER:                 -12.523
REMARK INTRA:                   0.057
REMARK UNBOUND:                 0.048
REMARK  Name = ZINC000036043325
REMARK  6 active torsions:
REMARK  status: ('A' for Active; 'I' for Inactive)
REMARK    1  A    between atoms: C_1  and  C_2
REMARK    2  A    between atoms: C_2  and  C_3
REMARK    3  A    between atoms: C_3  and  O_4
REMARK    4  A    between atoms: C_13  and  O_14
REMARK    5  A    between atoms: C_17  and  C_18
REMARK    6  A    between atoms: C_22  and  C_23
REMARK                            x       y       z     vdW  Elec       q    Type
REMARK                         _______ _______ _______ _____ _____    ______ ____
ROOT
ATOM      1  C   UNL     1       2.466   2.127 -23.503  0.00  0.00    +0.071 C 
ATOM      2  C   UNL     1       2.526   2.665 -24.697  0.00  0.00    +0.035 C 
ATOM      3  C   UNL     1       1.321   3.079 -25.014  0.00  0.00    +0.007 C 
ATOM      4  C   UNL     1       0.518   2.799 -24.016  0.00  0.00    +0.001 C 
ATOM      5  C   UNL     1      -0.763   3.004 -23.839  0.00  0.00    +0.000 C 
ATOM      6  C   UNL     1      -1.467   3.594 -24.779  0.00  0.00    +0.031 C 
ATOM      7  C   UNL     1      -2.750   3.799 -24.603  0.00  0.00    -0.027 C 
ATOM      8  C   UNL     1      -3.330   3.417 -23.492  0.00  0.00    -0.065 C 
ATOM      9  C   UNL     1      -4.613   3.622 -23.316  0.00  0.00    +0.062 C 
ATOM     10  C   UNL     1      -5.193   3.240 -22.205  0.00  0.00    +0.119 C 
ATOM     11  C   UNL     1      -4.493   2.650 -21.264  0.00  0.00    +0.032 C 
ATOM     12  C   UNL     1      -3.207   2.445 -21.442  0.00  0.00    +0.014 C 
ATOM     13  C   UNL     1      -2.627   2.827 -22.553  0.00  0.00    -0.008 C 
ATOM     14  C   UNL     1      -1.923   2.238 -21.615  0.00  0.00    +0.016 C 
ATOM     15  C   UNL     1      -1.344   2.621 -22.728  0.00  0.00    +0.003 C 
ATOM     16  C   UNL     1      -0.639   2.031 -21.789  0.00  0.00    +0.005 C 
ATOM     17  C   UNL     1       0.645   1.826 -21.966  0.00  0.00    +0.010 C 
ATOM     18  C   UNL     1       1.225   2.208 -23.077  0.00  0.00    -0.000 C 
ATOM     19  C   UNL     1       1.953   1.632 -22.179  0.00  0.00    +0.014 C 
ENDROOT
BRANCH   1  21
ATOM     20  C   UNL     1       4.593   2.935 -23.685  0.00  0.00    +0.007 C 
ATOM     21  C   UNL     1       3.754   1.941 -23.722  0.00  0.00    +0.032 C 
ENDBRANCH   1  21
BRANCH  10  22
ATOM     22  O   UNL     1      -6.479   3.446 -22.029  0.00  0.00    -0.391 OA
ATOM     23  H   UNL     1      -6.890   3.672 -22.878  0.00  0.00    +0.210 HD
ENDBRANCH  10  22
BRANCH   1  24
ATOM     24  O   UNL     1       2.749   1.665 -22.637  0.00  0.00    -0.388 OA
ATOM     25  H   UNL     1       3.694   1.820 -22.482  0.00  0.00    +0.210 HD
ENDBRANCH   1  24
TORSDOF 3
ENDMDL
MODEL 3
REMARK VINA RESULT:   -10.716      0.972      2.516
REMARK INTER + INTRA:         -12.234
REMARK INTER:                 -12.441
REMARK INTRA:                   0.207
REMARK UNBOUND:                 0.048
REMARK  Name = ZINC000036043325
REMARK  6 active torsions:
REMARK  status: ('A' for Active; 'I' for Inactive)
REMARK    1  A    between atoms: C_1  and  C_2
REMARK    2  A    between atoms: C_2  and  C_3
REMARK    3  A    between atoms: C_3  and  O_4
REMARK    4  A    between atoms: C_13  and  O_14
REMARK    5  A    between atoms: C_17  and  C_18
REMARK    6  A    between atoms: C_22  and  C_23
REMARK                            x       y       z     vdW  Elec       q    Type
REMARK                         _______ _______ _______ _____ _____    ______ ____
ROOT
ATOM      1  C   UNL     1      -3.520   3.214 -22.581  0.00  0.00    +0.071 C 
ATOM      2  C   UNL     1      -3.585   3.772 -23.766  0.00  0.00    +0.035 C 
ATOM      3  C   UNL     1      -2.398   3.682 -24.319  0.00  0.00    +0.007 C 
ATOM      4  C   UNL     1      -1.601   3.068 -23.478  0.00  0.00    +0.001 C 
ATOM      5  C   UNL     1      -0.337   2.737 -23.553  0.00  0.00    +0.000 C 
ATOM      6  C   UNL     1       0.353   3.030 -24.633  0.00  0.00    +0.031 C 
ATOM      7  C   UNL     1       1.620   2.699 -24.709  0.00  0.00    -0.027 C 
ATOM      8  C   UNL     1       2.197   2.078 -23.711  0.00  0.00    -0.065 C 
ATOM      9  C   UNL     1       3.464   1.746 -23.787  0.00  0.00    +0.062 C 
ATOM     10  C   UNL     1       4.042   1.124 -22.789  0.00  0.00    +0.119 C 
ATOM     11  C   UNL     1       3.355   0.831 -21.709  0.00  0.00    +0.032 C 
ATOM     12  C   UNL     1       2.086   1.163 -21.634  0.00  0.00    +0.014 C 
ATOM     13  C   UNL     1       1.509   1.785 -22.632  0.00  0.00    -0.008 C 
ATOM     14  C   UNL     1       0.819   1.493 -21.555  0.00  0.00    +0.016 C 
ATOM     15  C   UNL     1       0.242   2.115 -22.555  0.00  0.00    +0.003 C 
ATOM     16  C   UNL     1      -0.449   1.823 -21.476  0.00  0.00    +0.005 C 
ATOM     17  C   UNL     1      -1.716   2.154 -21.401  0.00  0.00    +0.010 C 
ATOM     18  C   UNL     1      -2.293   2.776 -22.399  0.00  0.00    -0.000 C 
ATOM     19  C   UNL     1      -3.008   2.507 -21.357  0.00  0.00    +0.014 C 
ENDROOT
BRANCH   1  21
ATOM     20  C   UNL     1      -5.459   3.781 -23.644  0.00  0.00    +0.007 C 
ATOM     21  C   UNL     1      -4.791   3.565 -22.547  0.00  0.00    +0.032 C 
ENDBRANCH   1  21
BRANCH  10  22
ATOM     22  O   UNL     1       5.311   0.793 -22.866  0.00  0.00    -0.391 OA
ATOM     23  H   UNL     1       5.703   1.195 -23.656  0.00  0.00    +0.210 HD
ENDBRANCH  10  22
BRANCH   1  24
ATOM     24  O   UNL     1      -3.795   2.872 -21.658  0.00  0.00    -0.388 OA
ATOM     25  H   UNL     1      -4.098   1.954 -21.731  0.00  0.00    +0.210 HD
ENDBRANCH   1  24
TORSDOF 3
ENDMDL
MODEL 4
REMARK VINA RESULT:   -10.511      1.010      6.108
REMARK INTER + INTRA:         -11.999
REMARK INTER:                 -12.056
REMARK INTRA:                   0.056
REMARK UNBOUND:                 0.048
REMARK  Name = ZINC000036043325
REMARK  6 active torsions:
REMARK  status: ('A' for Active; 'I' for Inactive)
REMARK    1  A    between atoms: C_1  and  C_2
REMARK    2  A    between atoms: C_2  and  C_3
REMARK    3  A    between atoms: C_3  and  O_4
REMARK    4  A    between atoms: C_13  and  O_14
REMARK    5  A    between atoms: C_17  and  C_18
REMARK    6  A    between atoms: C_22  and  C_23
REMARK                            x       y       z     vdW  Elec       q    Type
REMARK                         _______ _______ _______ _____ _____    ______ ____
ROOT
ATOM      1  C   UNL     1       2.267   2.548 -24.090  0.00  0.00    +0.071 C 
ATOM      2  C   UNL     1       2.626   2.021 -22.944  0.00  0.00    +0.035 C 
ATOM      3  C   UNL     1       1.555   1.927 -22.191  0.00  0.00    +0.007 C 
ATOM      4  C   UNL     1       0.537   2.395 -22.870  0.00  0.00    +0.001 C 
ATOM      5  C   UNL     1      -0.732   2.521 -22.570  0.00  0.00    +0.000 C 
ATOM      6  C   UNL     1      -1.167   2.134 -21.392  0.00  0.00    +0.031 C 
ATOM      7  C   UNL     1      -2.437   2.259 -21.090  0.00  0.00    -0.027 C 
ATOM      8  C   UNL     1      -3.271   2.769 -21.962  0.00  0.00    -0.065 C 
ATOM      9  C   UNL     1      -4.542   2.894 -21.661  0.00  0.00    +0.062 C 
ATOM     10  C   UNL     1      -5.377   3.404 -22.532  0.00  0.00    +0.119 C 
ATOM     11  C   UNL     1      -4.945   3.791 -23.710  0.00  0.00    +0.032 C 
ATOM     12  C   UNL     1      -3.672   3.665 -24.011  0.00  0.00    +0.014 C 
ATOM     13  C   UNL     1      -2.838   3.155 -23.139  0.00  0.00    -0.008 C 
ATOM     14  C   UNL     1      -2.402   3.541 -24.316  0.00  0.00    +0.016 C 
ATOM     15  C   UNL     1      -1.567   3.031 -23.442  0.00  0.00    +0.003 C 
ATOM     16  C   UNL     1      -1.131   3.417 -24.620  0.00  0.00    +0.005 C 
ATOM     17  C   UNL     1       0.139   3.291 -24.920  0.00  0.00    +0.010 C 
ATOM     18  C   UNL     1       0.974   2.782 -24.048  0.00  0.00    -0.000 C 
ATOM     19  C   UNL     1       1.443   3.149 -25.195  0.00  0.00    +0.014 C 
ENDROOT
BRANCH   1  21
ATOM     20  C   UNL     1       4.457   2.998 -23.627  0.00  0.00    +0.007 C 
ATOM     21  C   UNL     1       3.553   2.404 -24.351  0.00  0.00    +0.032 C 
ENDBRANCH   1  21
BRANCH  10  22
ATOM     22  O   UNL     1      -6.649   3.529 -22.230  0.00  0.00    -0.391 OA
ATOM     23  H   UNL     1      -7.187   3.378 -23.022  0.00  0.00    +0.210 HD
ENDBRANCH  10  22
BRANCH   1  24
ATOM     24  O   UNL     1       2.319   2.918 -25.041  0.00  0.00    -0.388 OA
ATOM     25  H   UNL     1       1.969   3.823 -25.055  0.00  0.00    +0.210 HD
ENDBRANCH   1  24
TORSDOF 3
ENDMDL
MODEL 5
REMARK VINA RESULT:    -9.844      1.375      2.087
REMARK INTER + INTRA:         -11.235
REMARK INTER:                 -11.470
REMARK INTRA:                   0.235
REMARK UNBOUND:                 0.048
REMARK  Name = ZINC000036043325
REMARK  6 active torsions:
REMARK  status: ('A' for Active; 'I' for Inactive)
REMARK    1  A    between atoms: C_1  and  C_2
REMARK    2  A    between atoms: C_2  and  C_3
REMARK    3  A    between atoms: C_3  and  O_4
REMARK    4  A    between atoms: C_13  and  O_14
REMARK    5  A    between atoms: C_17  and  C_18
REMARK    6  A    between atoms: C_22  and  C_23
REMARK                            x       y       z     vdW  Elec       q    Type
REMARK                         _______ _______ _______ _____ _____    ______ ____
ROOT
ATOM      1  C   UNL     1      -2.486   3.494 -23.128  0.00  0.00    +0.071 C 
ATOM      2  C   UNL     1      -2.848   2.631 -22.210  0.00  0.00    +0.035 C 
ATOM      3  C   UNL     1      -1.763   2.060 -21.742  0.00  0.00    +0.007 C 
ATOM      4  C   UNL     1      -0.731   2.569 -22.371  0.00  0.00    +0.001 C 
ATOM      5  C   UNL     1       0.554   2.339 -22.272  0.00  0.00    +0.000 C 
ATOM      6  C   UNL     1       0.996   1.450 -21.412  0.00  0.00    +0.031 C 
ATOM      7  C   UNL     1       2.283   1.219 -21.313  0.00  0.00    -0.027 C 
ATOM      8  C   UNL     1       3.128   1.874 -22.071  0.00  0.00    -0.065 C 
ATOM      9  C   UNL     1       4.416   1.643 -21.972  0.00  0.00    +0.062 C 
ATOM     10  C   UNL     1       5.260   2.298 -22.729  0.00  0.00    +0.119 C 
ATOM     11  C   UNL     1       4.822   3.187 -23.590  0.00  0.00    +0.032 C 
ATOM     12  C   UNL     1       3.532   3.418 -23.688  0.00  0.00    +0.014 C 
ATOM     13  C   UNL     1       2.687   2.763 -22.931  0.00  0.00    -0.008 C 
ATOM     14  C   UNL     1       2.245   3.651 -23.789  0.00  0.00    +0.016 C 
ATOM     15  C   UNL     1       1.400   2.994 -23.030  0.00  0.00    +0.003 C 
ATOM     16  C   UNL     1       0.957   3.884 -23.890  0.00  0.00    +0.005 C 
ATOM     17  C   UNL     1      -0.330   4.114 -23.988  0.00  0.00    +0.010 C 
ATOM     18  C   UNL     1      -1.175   3.459 -23.231  0.00  0.00    -0.000 C 
ATOM     19  C   UNL     1      -1.652   4.324 -24.063  0.00  0.00    +0.014 C 
ENDROOT
BRANCH   1  21
ATOM     20  C   UNL     1      -4.585   3.250 -22.265  0.00  0.00    +0.007 C 
ATOM     21  C   UNL     1      -3.788   3.694 -23.194  0.00  0.00    +0.032 C 
ENDBRANCH   1  21
BRANCH  10  22
ATOM     22  O   UNL     1       6.550   2.066 -22.629  0.00  0.00    -0.391 OA
ATOM     23  H   UNL     1       6.903   2.531 -21.856  0.00  0.00    +0.210 HD
ENDBRANCH  10  22
BRANCH   1  24
ATOM     24  O   UNL     1      -2.539   4.211 -23.854  0.00  0.00    -0.388 OA
ATOM     25  H   UNL     1      -1.934   4.937 -23.635  0.00  0.00    +0.210 HD
ENDBRANCH   1  24
TORSDOF 3
ENDMDL
MODEL 6
REMARK VINA RESULT:    -9.608      1.737      6.884
REMARK INTER + INTRA:         -10.964
REMARK INTER:                 -11.076
REMARK INTRA:                   0.112
REMARK UNBOUND:                 0.048
REMARK  Name = ZINC000036043325
REMARK  6 active torsions:
REMARK  status: ('A' for Active; 'I' for Inactive)
REMARK    1  A    between atoms: C_1  and  C_2
REMARK    2  A    between atoms: C_2  and  C_3
REMARK    3  A    between atoms: C_3  and  O_4
REMARK    4  A    between atoms: C_13  and  O_14
REMARK    5  A    between atoms: C_17  and  C_18
REMARK    6  A    between atoms: C_22  and  C_23
REMARK                            x       y       z     vdW  Elec       q    Type
REMARK                         _______ _______ _______ _____ _____    ______ ____
ROOT
ATOM      1  C   UNL     1       4.441   2.547 -22.378  0.00  0.00    +0.071 C 
ATOM      2  C   UNL     1       4.694   3.603 -23.114  0.00  0.00    +0.035 C 
ATOM      3  C   UNL     1       3.548   4.155 -23.435  0.00  0.00    +0.007 C 
ATOM      4  C   UNL     1       2.587   3.443 -22.899  0.00  0.00    +0.001 C 
ATOM      5  C   UNL     1       1.285   3.571 -22.923  0.00  0.00    +0.000 C 
ATOM      6  C   UNL     1       0.738   4.570 -23.579  0.00  0.00    +0.031 C 
ATOM      7  C   UNL     1      -0.567   4.700 -23.603  0.00  0.00    -0.027 C 
ATOM      8  C   UNL     1      -1.325   3.836 -22.974  0.00  0.00    -0.065 C 
ATOM      9  C   UNL     1      -2.630   3.965 -22.998  0.00  0.00    +0.062 C 
ATOM     10  C   UNL     1      -3.388   3.102 -22.369  0.00  0.00    +0.119 C 
ATOM     11  C   UNL     1      -2.844   2.103 -21.712  0.00  0.00    +0.032 C 
ATOM     12  C   UNL     1      -1.537   1.974 -21.689  0.00  0.00    +0.014 C 
ATOM     13  C   UNL     1      -0.779   2.838 -22.318  0.00  0.00    -0.008 C 
ATOM     14  C   UNL     1      -0.232   1.841 -21.663  0.00  0.00    +0.016 C 
ATOM     15  C   UNL     1       0.526   2.707 -22.293  0.00  0.00    +0.003 C 
ATOM     16  C   UNL     1       1.074   1.709 -21.637  0.00  0.00    +0.005 C 
ATOM     17  C   UNL     1       2.379   1.580 -21.614  0.00  0.00    +0.010 C 
ATOM     18  C   UNL     1       3.137   2.444 -22.243  0.00  0.00    -0.000 C 
ATOM     19  C   UNL     1       3.715   1.478 -21.610  0.00  0.00    +0.014 C 
ENDROOT
BRANCH   1  21
ATOM     20  C   UNL     1       6.505   3.509 -22.225  0.00  0.00    +0.007 C 
ATOM     21  C   UNL     1       5.757   2.455 -22.381  0.00  0.00    +0.032 C 
ENDBRANCH   1  21
BRANCH  10  22
ATOM     22  O   UNL     1      -4.695   3.232 -22.393  0.00  0.00    -0.391 OA
ATOM     23  H   UNL     1      -5.106   2.358 -22.469  0.00  0.00    +0.210 HD
ENDBRANCH  10  22
BRANCH   1  24
ATOM     24  O   UNL     1       4.581   1.709 -21.811  0.00  0.00    -0.388 OA
ATOM     25  H   UNL     1       3.886   1.063 -22.013  0.00  0.00    +0.210 HD
ENDBRANCH   1  24
TORSDOF 3
ENDMDL
MODEL 7
REMARK VINA RESULT:    -9.305      1.897      6.617
REMARK INTER + INTRA:         -10.617
REMARK INTER:                 -10.670
REMARK INTRA:                   0.054
REMARK UNBOUND:                 0.048
REMARK  Name = ZINC000036043325
REMARK  6 active torsions:
REMARK  status: ('A' for Active; 'I' for Inactive)
REMARK    1  A    between atoms: C_1  and  C_2
REMARK    2  A    between atoms: C_2  and  C_3
REMARK    3  A    between atoms: C_3  and  O_4
REMARK    4  A    between atoms: C_13  and  O_14
REMARK    5  A    between atoms: C_17  and  C_18
REMARK    6  A    between atoms: C_22  and  C_23
REMARK                            x       y       z     vdW  Elec       q    Type
REMARK                         _______ _______ _______ _____ _____    ______ ____
ROOT
ATOM      1  C   UNL     1       4.648   3.452 -22.501  0.00  0.00    +0.071 C 
ATOM      2  C   UNL     1       4.732   2.317 -21.848  0.00  0.00    +0.035 C 
ATOM      3  C   UNL     1       3.519   1.830 -21.729  0.00  0.00    +0.007 C 
ATOM      4  C   UNL     1       2.687   2.662 -22.307  0.00  0.00    +0.001 C 
ATOM      5  C   UNL     1       1.386   2.635 -22.459  0.00  0.00    +0.000 C 
ATOM      6  C   UNL     1       0.692   1.628 -21.978  0.00  0.00    +0.031 C 
ATOM      7  C   UNL     1      -0.610   1.601 -22.130  0.00  0.00    -0.027 C 
ATOM      8  C   UNL     1      -1.219   2.575 -22.759  0.00  0.00    -0.065 C 
ATOM      9  C   UNL     1      -2.522   2.547 -22.911  0.00  0.00    +0.062 C 
ATOM     10  C   UNL     1      -3.131   3.522 -23.541  0.00  0.00    +0.119 C 
ATOM     11  C   UNL     1      -2.439   4.529 -24.022  0.00  0.00    +0.032 C 
ATOM     12  C   UNL     1      -1.135   4.556 -23.869  0.00  0.00    +0.014 C 
ATOM     13  C   UNL     1      -0.526   3.581 -23.240  0.00  0.00    -0.008 C 
ATOM     14  C   UNL     1       0.168   4.586 -23.719  0.00  0.00    +0.016 C 
ATOM     15  C   UNL     1       0.777   3.610 -23.088  0.00  0.00    +0.003 C 
ATOM     16  C   UNL     1       1.472   4.617 -23.569  0.00  0.00    +0.005 C 
ATOM     17  C   UNL     1       2.774   4.644 -23.416  0.00  0.00    +0.010 C 
ATOM     18  C   UNL     1       3.383   3.669 -22.787  0.00  0.00    -0.000 C 
ATOM     19  C   UNL     1       4.103   4.640 -23.243  0.00  0.00    +0.014 C 
ENDROOT
BRANCH   1  21
ATOM     20  C   UNL     1       6.714   2.607 -22.979  0.00  0.00    +0.007 C 
ATOM     21  C   UNL     1       5.956   3.439 -22.325  0.00  0.00    +0.032 C 
ENDBRANCH   1  21
BRANCH  10  22
ATOM     22  O   UNL     1      -4.435   3.493 -23.692  0.00  0.00    -0.391 OA
ATOM     23  H   UNL     1      -4.699   4.154 -24.350  0.00  0.00    +0.210 HD
ENDBRANCH  10  22
BRANCH   1  24
ATOM     24  O   UNL     1       4.918   4.324 -22.960  0.00  0.00    -0.388 OA
ATOM     25  H   UNL     1       4.135   4.732 -23.363  0.00  0.00    +0.210 HD
ENDBRANCH   1  24
TORSDOF 3
ENDMDL
