MODEL 1
REMARK VINA RESULT:   -11.749      0.000      0.000
REMARK INTER + INTRA:         -11.976
REMARK INTER:                 -12.289
REMARK INTRA:                   0.313
REMARK UNBOUND:                 0.460
REMARK  Name = ZINC000001619757
REMARK  2 active torsions:
REMARK  status: ('A' for Active; 'I' for Inactive)
REMARK    1  A    between atoms: C_1  and  C_2
REMARK    2  A    between atoms: C_2  and  C_3
REMARK                            x       y       z     vdW  Elec       q    Type
REMARK                         _______ _______ _______ _____ _____    ______ ____
ROOT
ATOM      1  C   UNL     1      -3.953   3.317 -22.435  0.00  0.00    +0.038 C 
ATOM      2  C   UNL     1      -5.220   3.616 -22.883  0.00  0.00    +0.017 C 
ATOM      3  C   UNL     1      -5.334   3.931 -24.392  0.00  0.00    +0.036 C 
ATOM      4  C   UNL     1      -4.138   3.903 -25.259  0.00  0.00    +0.024 C 
ATOM      5  C   UNL     1      -2.872   3.571 -24.645  0.00  0.00    +0.085 C 
ATOM      6  C   UNL     1      -1.868   3.433 -24.791  0.00  0.00    +0.029 A 
ATOM      7  N   UNL     1      -0.846   3.429 -25.638  0.00  0.00    -0.357 N 
ATOM      8  H   UNL     1      -0.897   3.627 -26.601  0.00  0.00    +0.166 HD
ATOM      9  C   UNL     1       0.257   3.114 -24.968  0.00  0.00    +0.047 A 
ATOM     10  C   UNL     1       1.524   2.987 -25.394  0.00  0.00    +0.026 A 
ATOM     11  C   UNL     1       2.493   2.657 -24.535  0.00  0.00    +0.002 A 
ATOM     12  C   UNL     1       2.195   2.450 -23.231  0.00  0.00    +0.001 A 
ATOM     13  C   UNL     1       0.915   2.576 -22.788  0.00  0.00    +0.010 A 
ATOM     14  C   UNL     1      -0.059   2.909 -23.655  0.00  0.00    +0.003 A 
ATOM     15  C   UNL     1      -1.421   3.112 -23.534  0.00  0.00    -0.014 A 
ATOM     16  C   UNL     1      -2.690   3.100 -22.397  0.00  0.00    +0.088 C 
ATOM     17  C   UNL     1      -4.170   3.464 -22.998  0.00  0.00    +0.136 C 
ATOM     18  N   UNL     1      -4.046   3.537 -23.477  0.00  0.00    +0.238 N 
ATOM     19  H   UNL     1      -5.053   3.698 -23.442  0.00  0.00    +0.204 HD
ATOM     20  C   UNL     1      -4.364   3.777 -24.426  0.00  0.00    +0.135 C 
ATOM     21  C   UNL     1      -2.916   3.361 -23.535  0.00  0.00    +0.076 C 
ENDROOT
BRANCH   1  23
ATOM     22  C   UNL     1      -3.221   3.602 -20.295  0.00  0.00    +0.004 C 
ATOM     23  C   UNL     1      -3.817   3.056 -21.222  0.00  0.00    +0.006 C 
ENDBRANCH   1  23
TORSDOF 1
ENDMDL
MODEL 2
REMARK VINA RESULT:   -11.631      1.290      2.768
REMARK INTER + INTRA:         -11.851
REMARK INTER:                 -12.164
REMARK INTRA:                   0.313
REMARK UNBOUND:                 0.460
REMARK  Name = ZINC000001619757
REMARK  2 active torsions:
REMARK  status: ('A' for Active; 'I' for Inactive)
REMARK    1  A    between atoms: C_1  and  C_2
REMARK    2  A    between atoms: C_2  and  C_3
REMARK                            x       y       z     vdW  Elec       q    Type
REMARK                         _______ _______ _______ _____ _____    ______ ____
ROOT
ATOM      1  C   UNL     1      -4.139   3.737 -24.008  0.00  0.00    +0.038 C 
ATOM      2  C   UNL     1      -5.407   3.806 -23.476  0.00  0.00    +0.017 C 
ATOM      3  C   UNL     1      -5.557   3.249 -22.041  0.00  0.00    +0.036 C 
ATOM      4  C   UNL     1      -4.392   2.690 -21.326  0.00  0.00    +0.024 C 
ATOM      5  C   UNL     1      -3.121   2.685 -22.014  0.00  0.00    +0.085 C 
ATOM      6  C   UNL     1      -2.128   2.439 -21.962  0.00  0.00    +0.029 A 
ATOM      7  N   UNL     1      -1.135   1.921 -21.251  0.00  0.00    -0.357 N 
ATOM      8  H   UNL     1      -1.209   1.561 -20.337  0.00  0.00    +0.166 HD
ATOM      9  C   UNL     1      -0.024   1.968 -21.978  0.00  0.00    +0.047 A 
ATOM     10  C   UNL     1       1.223   1.565 -21.685  0.00  0.00    +0.026 A 
ATOM     11  C   UNL     1       2.205   1.710 -22.578  0.00  0.00    +0.002 A 
ATOM     12  C   UNL     1       1.941   2.266 -23.784  0.00  0.00    +0.001 A 
ATOM     13  C   UNL     1       0.682   2.678 -24.092  0.00  0.00    +0.010 A 
ATOM     14  C   UNL     1      -0.306   2.531 -23.190  0.00  0.00    +0.003 A 
ATOM     15  C   UNL     1      -1.654   2.836 -23.187  0.00  0.00    -0.014 A 
ATOM     16  C   UNL     1      -2.885   3.512 -24.152  0.00  0.00    +0.088 C 
ATOM     17  C   UNL     1      -4.368   3.563 -23.458  0.00  0.00    +0.136 C 
ATOM     18  N   UNL     1      -4.257   3.356 -23.016  0.00  0.00    +0.238 N 
ATOM     19  H   UNL     1      -5.255   3.560 -22.963  0.00  0.00    +0.204 HD
ATOM     20  C   UNL     1      -4.596   3.052 -22.093  0.00  0.00    +0.135 C 
ATOM     21  C   UNL     1      -3.138   3.119 -23.058  0.00  0.00    +0.076 C 
ENDROOT
BRANCH   1  23
ATOM     22  C   UNL     1      -3.650   3.661 -26.232  0.00  0.00    +0.004 C 
ATOM     23  C   UNL     1      -3.974   4.176 -25.164  0.00  0.00    +0.006 C 
ENDBRANCH   1  23
TORSDOF 1
ENDMDL
MODEL 3
REMARK VINA RESULT:   -11.078      1.438      5.680
REMARK INTER + INTRA:         -11.265
REMARK INTER:                 -11.617
REMARK INTRA:                   0.352
REMARK UNBOUND:                 0.460
REMARK  Name = ZINC000001619757
REMARK  2 active torsions:
REMARK  status: ('A' for Active; 'I' for Inactive)
REMARK    1  A    between atoms: C_1  and  C_2
REMARK    2  A    between atoms: C_2  and  C_3
REMARK                            x       y       z     vdW  Elec       q    Type
REMARK                         _______ _______ _______ _____ _____    ______ ____
ROOT
ATOM      1  C   UNL     1       0.897   2.546 -23.804  0.00  0.00    +0.038 C 
ATOM      2  C   UNL     1       2.040   2.043 -23.226  0.00  0.00    +0.017 C 
ATOM      3  C   UNL     1       1.868   1.477 -21.797  0.00  0.00    +0.036 C 
ATOM      4  C   UNL     1       0.547   1.495 -21.135  0.00  0.00    +0.024 C 
ATOM      5  C   UNL     1      -0.563   2.056 -21.869  0.00  0.00    +0.085 C 
ATOM      6  C   UNL     1      -1.564   2.278 -21.858  0.00  0.00    +0.029 A 
ATOM      7  N   UNL     1      -2.712   2.255 -21.193  0.00  0.00    -0.357 N 
ATOM      8  H   UNL     1      -2.842   1.900 -20.284  0.00  0.00    +0.166 HD
ATOM      9  C   UNL     1      -3.655   2.793 -21.959  0.00  0.00    +0.047 A 
ATOM     10  C   UNL     1      -4.962   2.986 -21.719  0.00  0.00    +0.026 A 
ATOM     11  C   UNL     1      -5.740   3.554 -22.644  0.00  0.00    +0.002 A 
ATOM     12  C   UNL     1      -5.207   3.935 -23.829  0.00  0.00    +0.001 A 
ATOM     13  C   UNL     1      -3.885   3.744 -24.083  0.00  0.00    +0.010 A 
ATOM     14  C   UNL     1      -3.103   3.172 -23.149  0.00  0.00    +0.003 A 
ATOM     15  C   UNL     1      -1.762   2.845 -23.092  0.00  0.00    -0.014 A 
ATOM     16  C   UNL     1      -0.320   2.903 -23.998  0.00  0.00    +0.088 C 
ATOM     17  C   UNL     1       1.002   2.288 -23.250  0.00  0.00    +0.136 C 
ATOM     18  N   UNL     1       0.792   2.151 -22.816  0.00  0.00    +0.238 N 
ATOM     19  H   UNL     1       1.774   1.890 -22.723  0.00  0.00    +0.204 HD
ATOM     20  C   UNL     1       0.923   1.728 -21.887  0.00  0.00    +0.135 C 
ATOM     21  C   UNL     1      -0.313   2.438 -22.904  0.00  0.00    +0.076 C 
ENDROOT
BRANCH   1  23
ATOM     22  C   UNL     1       1.138   4.148 -25.408  0.00  0.00    +0.004 C 
ATOM     23  C   UNL     1       0.991   3.013 -24.957  0.00  0.00    +0.006 C 
ENDBRANCH   1  23
TORSDOF 1
ENDMDL
MODEL 4
REMARK VINA RESULT:   -10.725      1.072      4.986
REMARK INTER + INTRA:         -10.892
REMARK INTER:                 -11.377
REMARK INTRA:                   0.485
REMARK UNBOUND:                 0.460
REMARK  Name = ZINC000001619757
REMARK  2 active torsions:
REMARK  status: ('A' for Active; 'I' for Inactive)
REMARK    1  A    between atoms: C_1  and  C_2
REMARK    2  A    between atoms: C_2  and  C_3
REMARK                            x       y       z     vdW  Elec       q    Type
REMARK                         _______ _______ _______ _____ _____    ______ ____
ROOT
ATOM      1  C   UNL     1       0.836   2.445 -23.001  0.00  0.00    +0.038 C 
ATOM      2  C   UNL     1       1.899   2.659 -23.848  0.00  0.00    +0.017 C 
ATOM      3  C   UNL     1       1.554   3.353 -25.186  0.00  0.00    +0.036 C 
ATOM      4  C   UNL     1       0.163   3.743 -25.494  0.00  0.00    +0.024 C 
ATOM      5  C   UNL     1      -0.850   3.452 -24.505  0.00  0.00    +0.085 C 
ATOM      6  C   UNL     1      -1.844   3.512 -24.264  0.00  0.00    +0.029 A 
ATOM      7  N   UNL     1      -3.065   3.894 -24.618  0.00  0.00    -0.357 N 
ATOM      8  H   UNL     1      -3.305   4.337 -25.464  0.00  0.00    +0.166 HD
ATOM      9  C   UNL     1      -3.907   3.579 -23.640  0.00  0.00    +0.047 A 
ATOM     10  C   UNL     1      -5.233   3.766 -23.543  0.00  0.00    +0.026 A 
ATOM     11  C   UNL     1      -5.892   3.366 -22.452  0.00  0.00    +0.002 A 
ATOM     12  C   UNL     1      -5.218   2.769 -21.441  0.00  0.00    +0.001 A 
ATOM     13  C   UNL     1      -3.875   2.575 -21.528  0.00  0.00    +0.010 A 
ATOM     14  C   UNL     1      -3.213   2.979 -22.628  0.00  0.00    +0.003 A 
ATOM     15  C   UNL     1      -1.889   2.933 -23.021  0.00  0.00    -0.014 A 
ATOM     16  C   UNL     1      -0.348   2.419 -22.507  0.00  0.00    +0.088 C 
ATOM     17  C   UNL     1       0.872   2.705 -23.563  0.00  0.00    +0.136 C 
ATOM     18  N   UNL     1       0.611   2.924 -23.930  0.00  0.00    +0.238 N 
ATOM     19  H   UNL     1       1.574   2.915 -24.267  0.00  0.00    +0.204 HD
ATOM     20  C   UNL     1       0.627   3.362 -24.861  0.00  0.00    +0.135 C 
ATOM     21  C   UNL     1      -0.475   2.943 -23.567  0.00  0.00    +0.076 C 
ENDROOT
BRANCH   1  23
ATOM     22  C   UNL     1       0.363   1.490 -20.986  0.00  0.00    +0.004 C 
ATOM     23  C   UNL     1       1.071   1.888 -21.909  0.00  0.00    +0.006 C 
ENDBRANCH   1  23
TORSDOF 1
ENDMDL
MODEL 5
REMARK VINA RESULT:    -9.840      1.879      3.475
REMARK INTER + INTRA:          -9.955
REMARK INTER:                 -10.389
REMARK INTRA:                   0.434
REMARK UNBOUND:                 0.460
REMARK  Name = ZINC000001619757
REMARK  2 active torsions:
REMARK  status: ('A' for Active; 'I' for Inactive)
REMARK    1  A    between atoms: C_1  and  C_2
REMARK    2  A    between atoms: C_2  and  C_3
REMARK                            x       y       z     vdW  Elec       q    Type
REMARK                         _______ _______ _______ _____ _____    ______ ____
ROOT
ATOM      1  C   UNL     1      -2.112   3.049 -23.894  0.00  0.00    +0.038 C 
ATOM      2  C   UNL     1      -3.401   3.232 -23.445  0.00  0.00    +0.017 C 
ATOM      3  C   UNL     1      -3.651   2.849 -21.968  0.00  0.00    +0.036 C 
ATOM      4  C   UNL     1      -2.553   2.326 -21.130  0.00  0.00    +0.024 C 
ATOM      5  C   UNL     1      -1.251   2.189 -21.741  0.00  0.00    +0.085 C 
ATOM      6  C   UNL     1      -0.275   1.907 -21.606  0.00  0.00    +0.029 A 
ATOM      7  N   UNL     1       0.654   1.431 -20.786  0.00  0.00    -0.357 N 
ATOM      8  H   UNL     1       0.516   1.182 -19.844  0.00  0.00    +0.166 HD
ATOM      9  C   UNL     1       1.802   1.348 -21.450  0.00  0.00    +0.047 A 
ATOM     10  C   UNL     1       3.011   0.927 -21.044  0.00  0.00    +0.026 A 
ATOM     11  C   UNL     1       4.044   0.927 -21.891  0.00  0.00    +0.002 A 
ATOM     12  C   UNL     1       3.869   1.353 -23.164  0.00  0.00    +0.001 A 
ATOM     13  C   UNL     1       2.649   1.781 -23.587  0.00  0.00    +0.010 A 
ATOM     14  C   UNL     1       1.610   1.781 -22.732  0.00  0.00    +0.003 A 
ATOM     15  C   UNL     1       0.281   2.141 -22.839  0.00  0.00    -0.014 A 
ATOM     16  C   UNL     1      -0.865   2.755 -23.941  0.00  0.00    +0.088 C 
ATOM     17  C   UNL     1      -2.378   2.948 -23.341  0.00  0.00    +0.136 C 
ATOM     18  N   UNL     1      -2.299   2.788 -22.874  0.00  0.00    +0.238 N 
ATOM     19  H   UNL     1      -3.288   3.040 -22.900  0.00  0.00    +0.204 HD
ATOM     20  C   UNL     1      -2.700   2.607 -21.943  0.00  0.00    +0.135 C 
ATOM     21  C   UNL     1      -1.192   2.501 -22.826  0.00  0.00    +0.076 C 
ENDROOT
BRANCH   1  23
ATOM     22  C   UNL     1      -0.849   3.684 -25.681  0.00  0.00    +0.004 C 
ATOM     23  C   UNL     1      -1.867   3.345 -25.080  0.00  0.00    +0.006 C 
ENDBRANCH   1  23
TORSDOF 1
ENDMDL
MODEL 6
REMARK VINA RESULT:    -9.345      2.309      6.404
REMARK INTER + INTRA:          -9.431
REMARK INTER:                  -9.746
REMARK INTRA:                   0.315
REMARK UNBOUND:                 0.460
REMARK  Name = ZINC000001619757
REMARK  2 active torsions:
REMARK  status: ('A' for Active; 'I' for Inactive)
REMARK    1  A    between atoms: C_1  and  C_2
REMARK    2  A    between atoms: C_2  and  C_3
REMARK                            x       y       z     vdW  Elec       q    Type
REMARK                         _______ _______ _______ _____ _____    ______ ____
ROOT
ATOM      1  C   UNL     1       3.736   2.405 -22.940  0.00  0.00    +0.038 C 
ATOM      2  C   UNL     1       4.981   2.981 -22.823  0.00  0.00    +0.017 C 
ATOM      3  C   UNL     1       5.012   4.524 -22.928  0.00  0.00    +0.036 C 
ATOM      4  C   UNL     1       3.767   5.289 -23.141  0.00  0.00    +0.024 C 
ATOM      5  C   UNL     1       2.533   4.545 -23.245  0.00  0.00    +0.085 C 
ATOM      6  C   UNL     1       1.518   4.596 -23.378  0.00  0.00    +0.029 A 
ATOM      7  N   UNL     1       0.448   5.358 -23.569  0.00  0.00    -0.357 N 
ATOM      8  H   UNL     1       0.446   6.340 -23.638  0.00  0.00    +0.166 HD
ATOM      9  C   UNL     1      -0.621   4.572 -23.649  0.00  0.00    +0.047 A 
ATOM     10  C   UNL     1      -1.914   4.883 -23.836  0.00  0.00    +0.026 A 
ATOM     11  C   UNL     1      -2.838   3.920 -23.885  0.00  0.00    +0.002 A 
ATOM     12  C   UNL     1      -2.467   2.625 -23.746  0.00  0.00    +0.001 A 
ATOM     13  C   UNL     1      -1.161   2.298 -23.556  0.00  0.00    +0.010 A 
ATOM     14  C   UNL     1      -0.232   3.271 -23.507  0.00  0.00    +0.003 A 
ATOM     15  C   UNL     1       1.139   3.279 -23.333  0.00  0.00    -0.014 A 
ATOM     16  C   UNL     1       2.473   2.246 -23.090  0.00  0.00    +0.088 C 
ATOM     17  C   UNL     1       3.923   2.997 -22.959  0.00  0.00    +0.136 C 
ATOM     18  N   UNL     1       3.773   3.471 -23.011  0.00  0.00    +0.238 N 
ATOM     19  H   UNL     1       4.783   3.532 -22.887  0.00  0.00    +0.204 HD
ATOM     20  C   UNL     1       4.039   4.465 -23.048  0.00  0.00    +0.135 C 
ATOM     21  C   UNL     1       2.637   3.422 -23.152  0.00  0.00    +0.076 C 
ENDROOT
BRANCH   1  23
ATOM     22  C   UNL     1       3.098   0.388 -22.093  0.00  0.00    +0.004 C 
ATOM     23  C   UNL     1       3.666   1.162 -22.861  0.00  0.00    +0.006 C 
ENDBRANCH   1  23
TORSDOF 1
ENDMDL
MODEL 7
REMARK VINA RESULT:    -9.190      2.751      7.038
REMARK INTER + INTRA:          -9.268
REMARK INTER:                  -9.608
REMARK INTRA:                   0.340
REMARK UNBOUND:                 0.460
REMARK  Name = ZINC000001619757
REMARK  2 active torsions:
REMARK  status: ('A' for Active; 'I' for Inactive)
REMARK    1  A    between atoms: C_1  and  C_2
REMARK    2  A    between atoms: C_2  and  C_3
REMARK                            x       y       z     vdW  Elec       q    Type
REMARK                         _______ _______ _______ _____ _____    ______ ____
ROOT
ATOM      1  C   UNL     1       4.376   2.633 -22.533  0.00  0.00    +0.038 C 
ATOM      2  C   UNL     1       5.384   1.835 -22.041  0.00  0.00    +0.017 C 
ATOM      3  C   UNL     1       4.921   0.614 -21.214  0.00  0.00    +0.036 C 
ATOM      4  C   UNL     1       3.483   0.358 -20.990  0.00  0.00    +0.024 C 
ATOM      5  C   UNL     1       2.539   1.286 -21.570  0.00  0.00    +0.085 C 
ATOM      6  C   UNL     1       1.551   1.526 -21.693  0.00  0.00    +0.029 A 
ATOM      7  N   UNL     1       0.282   1.225 -21.445  0.00  0.00    -0.357 N 
ATOM      8  H   UNL     1      -0.033   0.453 -20.922  0.00  0.00    +0.166 HD
ATOM      9  C   UNL     1      -0.490   2.139 -22.023  0.00  0.00    +0.047 A 
ATOM     10  C   UNL     1      -1.828   2.253 -22.049  0.00  0.00    +0.026 A 
ATOM     11  C   UNL     1      -2.404   3.267 -22.700  0.00  0.00    +0.002 A 
ATOM     12  C   UNL     1      -1.635   4.182 -23.336  0.00  0.00    +0.001 A 
ATOM     13  C   UNL     1      -0.280   4.076 -23.316  0.00  0.00    +0.010 A 
ATOM     14  C   UNL     1       0.299   3.054 -22.660  0.00  0.00    +0.003 A 
ATOM     15  C   UNL     1       1.609   2.668 -22.452  0.00  0.00    -0.014 A 
ATOM     16  C   UNL     1       3.217   3.109 -22.805  0.00  0.00    +0.088 C 
ATOM     17  C   UNL     1       4.366   2.116 -22.189  0.00  0.00    +0.136 C 
ATOM     18  N   UNL     1       4.070   1.785 -21.959  0.00  0.00    +0.238 N 
ATOM     19  H   UNL     1       5.018   1.457 -21.776  0.00  0.00    +0.204 HD
ATOM     20  C   UNL     1       4.008   0.930 -21.389  0.00  0.00    +0.135 C 
ATOM     21  C   UNL     1       2.998   2.139 -22.153  0.00  0.00    +0.076 C 
ENDROOT
BRANCH   1  23
ATOM     22  C   UNL     1       4.384   4.816 -23.187  0.00  0.00    +0.004 C 
ATOM     23  C   UNL     1       4.707   3.630 -23.207  0.00  0.00    +0.006 C 
ENDBRANCH   1  23
TORSDOF 1
ENDMDL
MODEL 8
REMARK VINA RESULT:    -9.170      2.474      4.663
REMARK INTER + INTRA:          -9.246
REMARK INTER:                  -9.600
REMARK INTRA:                   0.353
REMARK UNBOUND:                 0.460
REMARK  Name = ZINC000001619757
REMARK  2 active torsions:
REMARK  status: ('A' for Active; 'I' for Inactive)
REMARK    1  A    between atoms: C_1  and  C_2
REMARK    2  A    between atoms: C_2  and  C_3
REMARK                            x       y       z     vdW  Elec       q    Type
REMARK                         _______ _______ _______ _____ _____    ______ ____
ROOT
ATOM      1  C   UNL     1      -0.418   3.127 -23.515  0.00  0.00    +0.038 C 
ATOM      2  C   UNL     1      -1.646   2.687 -23.074  0.00  0.00    +0.017 C 
ATOM      3  C   UNL     1      -1.614   1.754 -21.841  0.00  0.00    +0.036 C 
ATOM      4  C   UNL     1      -0.330   1.385 -21.210  0.00  0.00    +0.024 C 
ATOM      5  C   UNL     1       0.880   1.925 -21.786  0.00  0.00    +0.085 C 
ATOM      6  C   UNL     1       1.902   1.969 -21.729  0.00  0.00    +0.029 A 
ATOM      7  N   UNL     1       3.009   1.589 -21.103  0.00  0.00    -0.357 N 
ATOM      8  H   UNL     1       3.051   0.997 -20.318  0.00  0.00    +0.166 HD
ATOM      9  C   UNL     1       4.051   2.143 -21.715  0.00  0.00    +0.047 A 
ATOM     10  C   UNL     1       5.364   2.051 -21.446  0.00  0.00    +0.026 A 
ATOM     11  C   UNL     1       6.253   2.701 -22.202  0.00  0.00    +0.002 A 
ATOM     12  C   UNL     1       5.827   3.455 -23.243  0.00  0.00    +0.001 A 
ATOM     13  C   UNL     1       4.500   3.555 -23.524  0.00  0.00    +0.010 A 
ATOM     14  C   UNL     1       3.606   2.899 -22.762  0.00  0.00    +0.003 A 
ATOM     15  C   UNL     1       2.229   2.793 -22.776  0.00  0.00    -0.014 A 
ATOM     16  C   UNL     1       0.845   3.317 -23.622  0.00  0.00    +0.088 C 
ATOM     17  C   UNL     1      -0.581   2.756 -23.044  0.00  0.00    +0.136 C 
ATOM     18  N   UNL     1      -0.411   2.481 -22.663  0.00  0.00    +0.238 N 
ATOM     19  H   UNL     1      -1.424   2.369 -22.630  0.00  0.00    +0.204 HD
ATOM     20  C   UNL     1      -0.638   1.862 -21.873  0.00  0.00    +0.135 C 
ATOM     21  C   UNL     1       0.728   2.595 -22.685  0.00  0.00    +0.076 C 
ENDROOT
BRANCH   1  23
ATOM     22  C   UNL     1       0.286   3.932 -25.527  0.00  0.00    +0.004 C 
ATOM     23  C   UNL     1      -0.399   3.883 -24.507  0.00  0.00    +0.006 C 
ENDBRANCH   1  23
TORSDOF 1
ENDMDL
MODEL 9
REMARK VINA RESULT:    -8.819      2.121      3.569
REMARK INTER + INTRA:          -8.875
REMARK INTER:                  -9.335
REMARK INTRA:                   0.460
REMARK UNBOUND:                 0.460
REMARK  Name = ZINC000001619757
REMARK  2 active torsions:
REMARK  status: ('A' for Active; 'I' for Inactive)
REMARK    1  A    between atoms: C_1  and  C_2
REMARK    2  A    between atoms: C_2  and  C_3
REMARK                            x       y       z     vdW  Elec       q    Type
REMARK                         _______ _______ _______ _____ _____    ______ ____
ROOT
ATOM      1  C   UNL     1      -1.065   2.451 -23.164  0.00  0.00    +0.038 C 
ATOM      2  C   UNL     1      -2.010   2.842 -24.085  0.00  0.00    +0.017 C 
ATOM      3  C   UNL     1      -1.460   3.571 -25.333  0.00  0.00    +0.036 C 
ATOM      4  C   UNL     1      -0.011   3.811 -25.487  0.00  0.00    +0.024 C 
ATOM      5  C   UNL     1       0.861   3.342 -24.435  0.00  0.00    +0.085 C 
ATOM      6  C   UNL     1       1.828   3.268 -24.102  0.00  0.00    +0.029 A 
ATOM      7  N   UNL     1       3.112   3.523 -24.318  0.00  0.00    -0.357 N 
ATOM      8  H   UNL     1       3.482   3.985 -25.105  0.00  0.00    +0.166 HD
ATOM      9  C   UNL     1       3.815   3.050 -23.294  0.00  0.00    +0.047 A 
ATOM     10  C   UNL     1       5.138   3.072 -23.066  0.00  0.00    +0.026 A 
ATOM     11  C   UNL     1       5.638   2.529 -21.953  0.00  0.00    +0.002 A 
ATOM     12  C   UNL     1       4.807   1.956 -21.052  0.00  0.00    +0.001 A 
ATOM     13  C   UNL     1       3.465   1.928 -21.272  0.00  0.00    +0.010 A 
ATOM     14  C   UNL     1       2.963   2.475 -22.394  0.00  0.00    +0.003 A 
ATOM     15  C   UNL     1       1.687   2.611 -22.906  0.00  0.00    -0.014 A 
ATOM     16  C   UNL     1       0.055   2.254 -22.570  0.00  0.00    +0.088 C 
ATOM     17  C   UNL     1      -1.017   2.748 -23.707  0.00  0.00    +0.136 C 
ATOM     18  N   UNL     1      -0.698   2.956 -24.032  0.00  0.00    +0.238 N 
ATOM     19  H   UNL     1      -1.619   3.082 -24.454  0.00  0.00    +0.204 HD
ATOM     20  C   UNL     1      -0.575   3.449 -24.927  0.00  0.00    +0.135 C 
ATOM     21  C   UNL     1       0.343   2.824 -23.574  0.00  0.00    +0.076 C 
ENDROOT
BRANCH   1  23
ATOM     22  C   UNL     1      -0.968   1.627 -21.041  0.00  0.00    +0.004 C 
ATOM     23  C   UNL     1      -1.466   1.859 -22.141  0.00  0.00    +0.006 C 
ENDBRANCH   1  23
TORSDOF 1
ENDMDL
