MODEL 1
REMARK VINA RESULT:   -10.351      0.000      0.000
REMARK INTER + INTRA:         -10.654
REMARK INTER:                 -10.654
REMARK INTRA:                   0.000
REMARK UNBOUND:                 0.000
REMARK  Name = CC1=C2CC[C@](C)(O)[C@@H]2[C@H]2OC(=O)[C@@H](C)[C@H]2CC1              ZINC000106803353
REMARK  4 active torsions:
REMARK  status: ('A' for Active; 'I' for Inactive)
REMARK    1  A    between atoms: C_1  and  C_2
REMARK    2  A    between atoms: C_6  and  C_7
REMARK    3  A    between atoms: C_6  and  O_8
REMARK    4  A    between atoms: C_14  and  C_15
REMARK                            x       y       z     vdW  Elec       q    Type
REMARK                         _______ _______ _______ _____ _____    ______ ____
ROOT
ATOM      1  C   UNL     1      -5.761   3.383 -22.140  0.00  0.00    +0.039 C 
ATOM      2  C   UNL     1      -4.513   3.114 -22.388  0.00  0.00    -0.073 C 
ATOM      3  C   UNL     1      -4.134   3.277 -23.620  0.00  0.00    -0.061 C 
ATOM      4  C   UNL     1      -4.929   3.681 -24.566  0.00  0.00    +0.034 C 
ATOM      5  C   UNL     1      -4.244   3.738 -25.670  0.00  0.00    +0.039 C 
ATOM      6  C   UNL     1      -3.026   3.369 -25.406  0.00  0.00    +0.073 C 
ATOM      7  C   UNL     1      -2.830   3.586 -26.672  0.00  0.00    +0.042 C 
ATOM      8  C   UNL     1      -2.957   3.084 -24.139  0.00  0.00    +0.087 C 
ATOM      9  C   UNL     1      -1.869   2.680 -23.552  0.00  0.00    +0.190 C 
ATOM     10  O   UNL     1      -0.739   2.521 -24.173  0.00  0.00    -0.460 OA
ATOM     11  C   UNL     1       0.140   2.112 -23.307  0.00  0.00    +0.311 C 
ATOM     12  C   UNL     1      -0.448   2.019 -22.151  0.00  0.00    +0.101 C 
ATOM     13  C   UNL     1       0.109   1.641 -21.039  0.00  0.00    +0.019 C 
ATOM     14  O   UNL     1       1.389   1.843 -23.553  0.00  0.00    -0.251 OA
ATOM     15  C   UNL     1      -1.690   2.371 -22.303  0.00  0.00    +0.044 C 
ATOM     16  C   UNL     1      -2.553   2.387 -21.331  0.00  0.00    +0.012 C 
ATOM     17  C   UNL     1      -3.809   2.718 -21.368  0.00  0.00    +0.031 C 
ENDROOT
BRANCH   6  18
ATOM     18  O   UNL     1      -1.766   3.045 -25.406  0.00  0.00    -0.388 OA
ATOM     19  H   UNL     1      -1.234   3.819 -25.645  0.00  0.00    +0.210 HD
ENDBRANCH   6  18
TORSDOF 1
ENDMDL
MODEL 2
REMARK VINA RESULT:    -9.861      1.612      3.167
REMARK INTER + INTRA:         -10.150
REMARK INTER:                 -10.150
REMARK INTRA:                   0.000
REMARK UNBOUND:                 0.000
REMARK  Name = CC1=C2CC[C@](C)(O)[C@@H]2[C@H]2OC(=O)[C@@H](C)[C@H]2CC1              ZINC000106803353
REMARK  4 active torsions:
REMARK  status: ('A' for Active; 'I' for Inactive)
REMARK    1  A    between atoms: C_1  and  C_2
REMARK    2  A    between atoms: C_6  and  C_7
REMARK    3  A    between atoms: C_6  and  O_8
REMARK    4  A    between atoms: C_14  and  C_15
REMARK                            x       y       z     vdW  Elec       q    Type
REMARK                         _______ _______ _______ _____ _____    ______ ____
ROOT
ATOM      1  C   UNL     1      -3.797   4.449 -25.871  0.00  0.00    +0.039 C 
ATOM      2  C   UNL     1      -3.056   3.897 -24.957  0.00  0.00    -0.073 C 
ATOM      3  C   UNL     1      -3.666   3.575 -23.855  0.00  0.00    -0.061 C 
ATOM      4  C   UNL     1      -4.933   3.780 -23.651  0.00  0.00    +0.034 C 
ATOM      5  C   UNL     1      -5.224   3.348 -22.460  0.00  0.00    +0.039 C 
ATOM      6  C   UNL     1      -4.137   2.876 -21.927  0.00  0.00    +0.073 C 
ATOM      7  C   UNL     1      -4.906   2.626 -20.909  0.00  0.00    +0.042 C 
ATOM      8  C   UNL     1      -3.173   3.016 -22.789  0.00  0.00    +0.087 C 
ATOM      9  C   UNL     1      -1.949   2.641 -22.562  0.00  0.00    +0.190 C 
ATOM     10  O   UNL     1      -1.563   2.088 -21.451  0.00  0.00    -0.460 OA
ATOM     11  C   UNL     1      -0.291   1.838 -21.547  0.00  0.00    +0.311 C 
ATOM     12  C   UNL     1       0.109   2.236 -22.718  0.00  0.00    +0.101 C 
ATOM     13  C   UNL     1       1.321   2.152 -23.180  0.00  0.00    +0.019 C 
ATOM     14  O   UNL     1       0.450   1.286 -20.633  0.00  0.00    -0.251 OA
ATOM     15  C   UNL     1      -0.915   2.733 -23.346  0.00  0.00    +0.044 C 
ATOM     16  C   UNL     1      -0.850   3.221 -24.548  0.00  0.00    +0.012 C 
ATOM     17  C   UNL     1      -1.803   3.739 -25.265  0.00  0.00    +0.031 C 
ENDROOT
BRANCH   6  18
ATOM     18  O   UNL     1      -3.210   2.352 -21.181  0.00  0.00    -0.388 OA
ATOM     19  H   UNL     1      -3.617   1.781 -20.512  0.00  0.00    +0.210 HD
ENDBRANCH   6  18
TORSDOF 1
ENDMDL
MODEL 3
REMARK VINA RESULT:    -9.501      1.507      4.243
REMARK INTER + INTRA:          -9.779
REMARK INTER:                  -9.779
REMARK INTRA:                   0.000
REMARK UNBOUND:                 0.000
REMARK  Name = CC1=C2CC[C@](C)(O)[C@@H]2[C@H]2OC(=O)[C@@H](C)[C@H]2CC1              ZINC000106803353
REMARK  4 active torsions:
REMARK  status: ('A' for Active; 'I' for Inactive)
REMARK    1  A    between atoms: C_1  and  C_2
REMARK    2  A    between atoms: C_6  and  C_7
REMARK    3  A    between atoms: C_6  and  O_8
REMARK    4  A    between atoms: C_14  and  C_15
REMARK                            x       y       z     vdW  Elec       q    Type
REMARK                         _______ _______ _______ _____ _____    ______ ____
ROOT
ATOM      1  C   UNL     1       0.106   1.503 -20.877  0.00  0.00    +0.039 C 
ATOM      2  C   UNL     1      -0.678   2.098 -21.726  0.00  0.00    -0.073 C 
ATOM      3  C   UNL     1      -0.100   2.579 -22.786  0.00  0.00    -0.061 C 
ATOM      4  C   UNL     1       1.177   2.487 -23.010  0.00  0.00    +0.034 C 
ATOM      5  C   UNL     1       1.429   3.065 -24.147  0.00  0.00    +0.039 C 
ATOM      6  C   UNL     1       0.307   3.515 -24.626  0.00  0.00    +0.073 C 
ATOM      7  C   UNL     1       1.050   3.927 -25.610  0.00  0.00    +0.042 C 
ATOM      8  C   UNL     1      -0.639   3.215 -23.785  0.00  0.00    +0.087 C 
ATOM      9  C   UNL     1      -1.887   3.526 -23.970  0.00  0.00    +0.190 C 
ATOM     10  O   UNL     1      -2.318   4.168 -25.015  0.00  0.00    -0.460 OA
ATOM     11  C   UNL     1      -3.604   4.317 -24.893  0.00  0.00    +0.311 C 
ATOM     12  C   UNL     1      -3.967   3.767 -23.772  0.00  0.00    +0.101 C 
ATOM     13  C   UNL     1      -5.179   3.715 -23.304  0.00  0.00    +0.019 C 
ATOM     14  O   UNL     1      -4.389   4.912 -25.741  0.00  0.00    -0.251 OA
ATOM     15  C   UNL     1      -2.906   3.277 -23.202  0.00  0.00    +0.044 C 
ATOM     16  C   UNL     1      -2.929   2.658 -22.060  0.00  0.00    +0.012 C 
ATOM     17  C   UNL     1      -1.937   2.133 -21.403  0.00  0.00    +0.031 C 
ENDROOT
BRANCH   6  18
ATOM     18  O   UNL     1      -0.660   4.051 -25.311  0.00  0.00    -0.388 OA
ATOM     19  H   UNL     1      -1.138   3.359 -25.792  0.00  0.00    +0.210 HD
ENDBRANCH   6  18
TORSDOF 1
ENDMDL
MODEL 4
REMARK VINA RESULT:    -8.985      1.929      5.112
REMARK INTER + INTRA:          -9.247
REMARK INTER:                  -9.247
REMARK INTRA:                   0.000
REMARK UNBOUND:                 0.000
REMARK  Name = CC1=C2CC[C@](C)(O)[C@@H]2[C@H]2OC(=O)[C@@H](C)[C@H]2CC1              ZINC000106803353
REMARK  4 active torsions:
REMARK  status: ('A' for Active; 'I' for Inactive)
REMARK    1  A    between atoms: C_1  and  C_2
REMARK    2  A    between atoms: C_6  and  C_7
REMARK    3  A    between atoms: C_6  and  O_8
REMARK    4  A    between atoms: C_14  and  C_15
REMARK                            x       y       z     vdW  Elec       q    Type
REMARK                         _______ _______ _______ _____ _____    ______ ____
ROOT
ATOM      1  C   UNL     1       1.180   3.377 -25.570  0.00  0.00    +0.039 C 
ATOM      2  C   UNL     1       0.071   3.302 -24.896  0.00  0.00    -0.073 C 
ATOM      3  C   UNL     1       0.164   2.766 -23.716  0.00  0.00    -0.061 C 
ATOM      4  C   UNL     1       1.279   2.325 -23.215  0.00  0.00    +0.034 C 
ATOM      5  C   UNL     1       1.029   1.854 -22.029  0.00  0.00    +0.039 C 
ATOM      6  C   UNL     1      -0.241   2.004 -21.797  0.00  0.00    +0.073 C 
ATOM      7  C   UNL     1       0.041   1.448 -20.656  0.00  0.00    +0.042 C 
ATOM      8  C   UNL     1      -0.777   2.568 -22.839  0.00  0.00    +0.087 C 
ATOM      9  C   UNL     1      -2.041   2.857 -22.927  0.00  0.00    +0.190 C 
ATOM     10  O   UNL     1      -2.899   2.613 -21.982  0.00  0.00    -0.460 OA
ATOM     11  C   UNL     1      -4.066   3.021 -22.384  0.00  0.00    +0.311 C 
ATOM     12  C   UNL     1      -3.929   3.517 -23.578  0.00  0.00    +0.101 C 
ATOM     13  C   UNL     1      -4.877   4.025 -24.307  0.00  0.00    +0.019 C 
ATOM     14  O   UNL     1      -5.176   2.946 -21.711  0.00  0.00    -0.251 OA
ATOM     15  C   UNL     1      -2.677   3.416 -23.914  0.00  0.00    +0.044 C 
ATOM     16  C   UNL     1      -2.207   3.823 -25.055  0.00  0.00    +0.012 C 
ATOM     17  C   UNL     1      -0.984   3.772 -25.492  0.00  0.00    +0.031 C 
ENDROOT
BRANCH   6  18
ATOM     18  O   UNL     1      -1.453   2.038 -21.326  0.00  0.00    -0.388 OA
ATOM     19  H   UNL     1      -1.543   1.382 -20.619  0.00  0.00    +0.210 HD
ENDBRANCH   6  18
TORSDOF 1
ENDMDL
MODEL 5
REMARK VINA RESULT:    -8.919      0.934      3.994
REMARK INTER + INTRA:          -9.180
REMARK INTER:                  -9.180
REMARK INTRA:                   0.000
REMARK UNBOUND:                 0.000
REMARK  Name = CC1=C2CC[C@](C)(O)[C@@H]2[C@H]2OC(=O)[C@@H](C)[C@H]2CC1              ZINC000106803353
REMARK  4 active torsions:
REMARK  status: ('A' for Active; 'I' for Inactive)
REMARK    1  A    between atoms: C_1  and  C_2
REMARK    2  A    between atoms: C_6  and  C_7
REMARK    3  A    between atoms: C_6  and  O_8
REMARK    4  A    between atoms: C_14  and  C_15
REMARK                            x       y       z     vdW  Elec       q    Type
REMARK                         _______ _______ _______ _____ _____    ______ ____
ROOT
ATOM      1  C   UNL     1      -3.346   3.012 -19.953  0.00  0.00    +0.039 C 
ATOM      2  C   UNL     1      -3.294   3.080 -21.250  0.00  0.00    -0.073 C 
ATOM      3  C   UNL     1      -2.140   2.808 -21.784  0.00  0.00    -0.061 C 
ATOM      4  C   UNL     1      -1.089   2.485 -21.091  0.00  0.00    +0.034 C 
ATOM      5  C   UNL     1      -0.109   2.277 -21.921  0.00  0.00    +0.039 C 
ATOM      6  C   UNL     1      -0.555   2.472 -23.126  0.00  0.00    +0.073 C 
ATOM      7  C   UNL     1       0.660   2.171 -23.477  0.00  0.00    +0.042 C 
ATOM      8  C   UNL     1      -1.811   2.800 -23.042  0.00  0.00    +0.087 C 
ATOM      9  C   UNL     1      -2.553   3.063 -24.077  0.00  0.00    +0.190 C 
ATOM     10  O   UNL     1      -2.116   3.024 -25.300  0.00  0.00    -0.460 OA
ATOM     11  C   UNL     1      -3.101   3.336 -26.088  0.00  0.00    +0.311 C 
ATOM     12  C   UNL     1      -4.148   3.567 -25.352  0.00  0.00    +0.101 C 
ATOM     13  C   UNL     1      -5.326   3.907 -25.783  0.00  0.00    +0.019 C 
ATOM     14  O   UNL     1      -3.051   3.404 -27.386  0.00  0.00    -0.251 OA
ATOM     15  C   UNL     1      -3.809   3.398 -24.108  0.00  0.00    +0.044 C 
ATOM     16  C   UNL     1      -4.632   3.554 -23.114  0.00  0.00    +0.012 C 
ATOM     17  C   UNL     1      -4.403   3.412 -21.843  0.00  0.00    +0.031 C 
ENDROOT
BRANCH   6  18
ATOM     18  O   UNL     1      -0.747   2.604 -24.405  0.00  0.00    -0.388 OA
ATOM     19  H   UNL     1      -1.633   2.283 -24.634  0.00  0.00    +0.210 HD
ENDBRANCH   6  18
TORSDOF 1
ENDMDL
MODEL 6
REMARK VINA RESULT:    -8.853      1.951      3.822
REMARK INTER + INTRA:          -9.111
REMARK INTER:                  -9.111
REMARK INTRA:                   0.000
REMARK UNBOUND:                 0.000
REMARK  Name = CC1=C2CC[C@](C)(O)[C@@H]2[C@H]2OC(=O)[C@@H](C)[C@H]2CC1              ZINC000106803353
REMARK  4 active torsions:
REMARK  status: ('A' for Active; 'I' for Inactive)
REMARK    1  A    between atoms: C_1  and  C_2
REMARK    2  A    between atoms: C_6  and  C_7
REMARK    3  A    between atoms: C_6  and  O_8
REMARK    4  A    between atoms: C_14  and  C_15
REMARK                            x       y       z     vdW  Elec       q    Type
REMARK                         _______ _______ _______ _____ _____    ______ ____
ROOT
ATOM      1  C   UNL     1       0.898   2.882 -23.624  0.00  0.00    +0.039 C 
ATOM      2  C   UNL     1      -0.358   2.901 -23.287  0.00  0.00    -0.073 C 
ATOM      3  C   UNL     1      -1.196   3.152 -24.248  0.00  0.00    -0.061 C 
ATOM      4  C   UNL     1      -0.833   3.372 -25.476  0.00  0.00    +0.034 C 
ATOM      5  C   UNL     1      -1.904   3.587 -26.181  0.00  0.00    +0.039 C 
ATOM      6  C   UNL     1      -2.930   3.500 -25.388  0.00  0.00    +0.073 C 
ATOM      7  C   UNL     1      -3.612   3.762 -26.463  0.00  0.00    +0.042 C 
ATOM      8  C   UNL     1      -2.493   3.230 -24.193  0.00  0.00    +0.087 C 
ATOM      9  C   UNL     1      -3.271   3.078 -23.162  0.00  0.00    +0.190 C 
ATOM     10  O   UNL     1      -4.566   3.180 -23.221  0.00  0.00    -0.460 OA
ATOM     11  C   UNL     1      -5.040   2.974 -22.029  0.00  0.00    +0.311 C 
ATOM     12  C   UNL     1      -4.037   2.745 -21.232  0.00  0.00    +0.101 C 
ATOM     13  C   UNL     1      -4.115   2.496 -19.959  0.00  0.00    +0.019 C 
ATOM     14  O   UNL     1      -6.295   2.993 -21.690  0.00  0.00    -0.251 OA
ATOM     15  C   UNL     1      -2.944   2.810 -21.933  0.00  0.00    +0.044 C 
ATOM     16  C   UNL     1      -1.760   2.627 -21.430  0.00  0.00    +0.012 C 
ATOM     17  C   UNL     1      -0.609   2.668 -22.033  0.00  0.00    +0.031 C 
ENDROOT
BRANCH   6  18
ATOM     18  O   UNL     1      -4.099   3.467 -24.819  0.00  0.00    -0.388 OA
ATOM     19  H   UNL     1      -4.592   4.270 -25.046  0.00  0.00    +0.210 HD
ENDBRANCH   6  18
TORSDOF 1
ENDMDL
MODEL 7
REMARK VINA RESULT:    -8.817      1.737      4.486
REMARK INTER + INTRA:          -9.075
REMARK INTER:                  -9.075
REMARK INTRA:                   0.000
REMARK UNBOUND:                 0.000
REMARK  Name = CC1=C2CC[C@](C)(O)[C@@H]2[C@H]2OC(=O)[C@@H](C)[C@H]2CC1              ZINC000106803353
REMARK  4 active torsions:
REMARK  status: ('A' for Active; 'I' for Inactive)
REMARK    1  A    between atoms: C_1  and  C_2
REMARK    2  A    between atoms: C_6  and  C_7
REMARK    3  A    between atoms: C_6  and  O_8
REMARK    4  A    between atoms: C_14  and  C_15
REMARK                            x       y       z     vdW  Elec       q    Type
REMARK                         _______ _______ _______ _____ _____    ______ ____
ROOT
ATOM      1  C   UNL     1       2.318   1.334 -21.371  0.00  0.00    +0.039 C 
ATOM      2  C   UNL     1       1.166   1.770 -21.787  0.00  0.00    -0.073 C 
ATOM      3  C   UNL     1       1.178   2.397 -22.926  0.00  0.00    -0.061 C 
ATOM      4  C   UNL     1       2.256   2.591 -23.625  0.00  0.00    +0.034 C 
ATOM      5  C   UNL     1       1.926   3.244 -24.700  0.00  0.00    +0.039 C 
ATOM      6  C   UNL     1       0.644   3.453 -24.665  0.00  0.00    +0.073 C 
ATOM      7  C   UNL     1       0.847   4.047 -25.804  0.00  0.00    +0.042 C 
ATOM      8  C   UNL     1       0.181   2.930 -23.569  0.00  0.00    +0.087 C 
ATOM      9  C   UNL     1      -1.074   2.967 -23.231  0.00  0.00    +0.190 C 
ATOM     10  O   UNL     1      -1.994   3.531 -23.956  0.00  0.00    -0.460 OA
ATOM     11  C   UNL     1      -3.131   3.394 -23.340  0.00  0.00    +0.311 C 
ATOM     12  C   UNL     1      -2.913   2.744 -22.235  0.00  0.00    +0.101 C 
ATOM     13  C   UNL     1      -3.809   2.416 -21.353  0.00  0.00    +0.019 C 
ATOM     14  O   UNL     1      -4.283   3.829 -23.756  0.00  0.00    -0.251 OA
ATOM     15  C   UNL     1      -1.642   2.480 -22.167  0.00  0.00    +0.044 C 
ATOM     16  C   UNL     1      -1.096   1.837 -21.179  0.00  0.00    +0.012 C 
ATOM     17  C   UNL     1       0.154   1.521 -21.010  0.00  0.00    +0.031 C 
ENDROOT
BRANCH   6  18
ATOM     18  O   UNL     1      -0.596   3.787 -24.868  0.00  0.00    -0.388 OA
ATOM     19  H   UNL     1      -1.160   3.349 -24.213  0.00  0.00    +0.210 HD
ENDBRANCH   6  18
TORSDOF 1
ENDMDL
MODEL 8
REMARK VINA RESULT:    -8.690      1.331      2.153
REMARK INTER + INTRA:          -8.944
REMARK INTER:                  -8.944
REMARK INTRA:                   0.000
REMARK UNBOUND:                 0.000
REMARK  Name = CC1=C2CC[C@](C)(O)[C@@H]2[C@H]2OC(=O)[C@@H](C)[C@H]2CC1              ZINC000106803353
REMARK  4 active torsions:
REMARK  status: ('A' for Active; 'I' for Inactive)
REMARK    1  A    between atoms: C_1  and  C_2
REMARK    2  A    between atoms: C_6  and  C_7
REMARK    3  A    between atoms: C_6  and  O_8
REMARK    4  A    between atoms: C_14  and  C_15
REMARK                            x       y       z     vdW  Elec       q    Type
REMARK                         _______ _______ _______ _____ _____    ______ ____
ROOT
ATOM      1  C   UNL     1      -3.230   2.452 -20.987  0.00  0.00    +0.039 C 
ATOM      2  C   UNL     1      -2.134   2.376 -21.680  0.00  0.00    -0.073 C 
ATOM      3  C   UNL     1      -2.230   2.720 -22.929  0.00  0.00    -0.061 C 
ATOM      4  C   UNL     1      -3.339   3.120 -23.478  0.00  0.00    +0.034 C 
ATOM      5  C   UNL     1      -3.096   3.386 -24.728  0.00  0.00    +0.039 C 
ATOM      6  C   UNL     1      -1.837   3.150 -24.951  0.00  0.00    +0.073 C 
ATOM      7  C   UNL     1      -2.121   3.529 -26.162  0.00  0.00    +0.042 C 
ATOM      8  C   UNL     1      -1.301   2.739 -23.840  0.00  0.00    +0.087 C 
ATOM      9  C   UNL     1      -0.047   2.418 -23.725  0.00  0.00    +0.190 C 
ATOM     10  O   UNL     1       0.800   2.474 -24.709  0.00  0.00    -0.460 OA
ATOM     11  C   UNL     1       1.959   2.090 -24.264  0.00  0.00    +0.311 C 
ATOM     12  C   UNL     1       1.828   1.795 -23.005  0.00  0.00    +0.101 C 
ATOM     13  C   UNL     1       2.772   1.373 -22.217  0.00  0.00    +0.019 C 
ATOM     14  O   UNL     1       3.057   2.013 -24.957  0.00  0.00    -0.251 OA
ATOM     15  C   UNL     1       0.588   1.998 -22.671  0.00  0.00    +0.044 C 
ATOM     16  C   UNL     1       0.127   1.796 -21.473  0.00  0.00    +0.012 C 
ATOM     17  C   UNL     1      -1.084   1.964 -21.032  0.00  0.00    +0.031 C 
ENDROOT
BRANCH   6  18
ATOM     18  O   UNL     1      -0.638   2.994 -25.428  0.00  0.00    -0.388 OA
ATOM     19  H   UNL     1      -0.659   2.353 -26.154  0.00  0.00    +0.210 HD
ENDBRANCH   6  18
TORSDOF 1
ENDMDL
MODEL 9
REMARK VINA RESULT:    -8.174      2.940      6.165
REMARK INTER + INTRA:          -8.412
REMARK INTER:                  -8.412
REMARK INTRA:                   0.000
REMARK UNBOUND:                 0.000
REMARK  Name = CC1=C2CC[C@](C)(O)[C@@H]2[C@H]2OC(=O)[C@@H](C)[C@H]2CC1              ZINC000106803353
REMARK  4 active torsions:
REMARK  status: ('A' for Active; 'I' for Inactive)
REMARK    1  A    between atoms: C_1  and  C_2
REMARK    2  A    between atoms: C_6  and  C_7
REMARK    3  A    between atoms: C_6  and  O_8
REMARK    4  A    between atoms: C_14  and  C_15
REMARK                            x       y       z     vdW  Elec       q    Type
REMARK                         _______ _______ _______ _____ _____    ______ ____
ROOT
ATOM      1  C   UNL     1       4.440   5.164 -22.903  0.00  0.00    +0.039 C 
ATOM      2  C   UNL     1       3.267   4.619 -23.031  0.00  0.00    -0.073 C 
ATOM      3  C   UNL     1       3.221   3.331 -22.864  0.00  0.00    -0.061 C 
ATOM      4  C   UNL     1       4.264   2.608 -22.586  0.00  0.00    +0.034 C 
ATOM      5  C   UNL     1       3.880   1.370 -22.484  0.00  0.00    +0.039 C 
ATOM      6  C   UNL     1       2.599   1.328 -22.699  0.00  0.00    +0.073 C 
ATOM      7  C   UNL     1       2.745   0.052 -22.500  0.00  0.00    +0.042 C 
ATOM      8  C   UNL     1       2.191   2.540 -22.934  0.00  0.00    +0.087 C 
ATOM      9  C   UNL     1       0.952   2.843 -23.189  0.00  0.00    +0.190 C 
ATOM     10  O   UNL     1      -0.005   1.964 -23.235  0.00  0.00    -0.460 OA
ATOM     11  C   UNL     1      -1.110   2.589 -23.511  0.00  0.00    +0.311 C 
ATOM     12  C   UNL     1      -0.837   3.854 -23.635  0.00  0.00    +0.101 C 
ATOM     13  C   UNL     1      -1.689   4.796 -23.910  0.00  0.00    +0.019 C 
ATOM     14  O   UNL     1      -2.284   2.045 -23.639  0.00  0.00    -0.251 OA
ATOM     15  C   UNL     1       0.438   4.011 -23.437  0.00  0.00    +0.044 C 
ATOM     16  C   UNL     1       1.035   5.165 -23.491  0.00  0.00    +0.012 C 
ATOM     17  C   UNL     1       2.293   5.435 -23.310  0.00  0.00    +0.031 C 
ENDROOT
BRANCH   6  18
ATOM     18  O   UNL     1       1.348   1.020 -22.873  0.00  0.00    -0.388 OA
ATOM     19  H   UNL     1       1.033   1.404 -23.705  0.00  0.00    +0.210 HD
ENDBRANCH   6  18
TORSDOF 1
ENDMDL
