MODEL 1
REMARK VINA RESULT:   -11.709      0.000      0.000
REMARK INTER + INTRA:          -9.560
REMARK INTER:                 -12.748
REMARK INTRA:                   3.188
REMARK UNBOUND:                 3.176
REMARK  Name = ZINC000004104908
REMARK  5 active torsions:
REMARK  status: ('A' for Active; 'I' for Inactive)
REMARK    1  A    between atoms: C_1  and  C_2
REMARK    2  A    between atoms: C_2  and  C_4
REMARK    3  A    between atoms: C_13  and  O_14
REMARK    4  A    between atoms: C_17  and  C_18
REMARK    5  A    between atoms: C_22  and  C_23
REMARK                            x       y       z     vdW  Elec       q    Type
REMARK                         _______ _______ _______ _____ _____    ______ ____
ROOT
ATOM      1  C   UNL     1       2.528   1.804 -22.803  0.00  0.00    +0.069 C 
ATOM      2  C   UNL     1       2.743   2.238 -24.010  0.00  0.00    +0.039 C 
ATOM      3  C   UNL     1       1.615   2.675 -24.486  0.00  0.00    -0.026 C 
ATOM      4  C   UNL     1       0.703   2.512 -23.574  0.00  0.00    -0.063 C 
ATOM      5  C   UNL     1      -0.568   2.785 -23.557  0.00  0.00    +0.019 C 
ATOM      6  C   UNL     1      -1.131   3.323 -24.597  0.00  0.00    +0.008 C 
ATOM      7  C   UNL     1      -2.403   3.595 -24.579  0.00  0.00    +0.005 C 
ATOM      8  C   UNL     1      -3.110   3.329 -23.521  0.00  0.00    -0.002 C 
ATOM      9  C   UNL     1      -4.381   3.601 -23.503  0.00  0.00    +0.035 C 
ATOM     10  C   UNL     1      -5.088   3.335 -22.446  0.00  0.00    +0.115 C 
ATOM     11  C   UNL     1      -4.524   2.796 -21.405  0.00  0.00    +0.032 C 
ATOM     12  C   UNL     1      -3.253   2.524 -21.423  0.00  0.00    +0.010 C 
ATOM     13  C   UNL     1      -2.546   2.791 -22.481  0.00  0.00    -0.026 C 
ATOM     14  C   UNL     1      -1.981   2.252 -21.441  0.00  0.00    +0.012 C 
ATOM     15  C   UNL     1      -1.275   2.518 -22.499  0.00  0.00    +0.002 C 
ATOM     16  C   UNL     1      -0.710   1.980 -21.459  0.00  0.00    +0.005 C 
ATOM     17  C   UNL     1       0.560   1.708 -21.476  0.00  0.00    +0.012 C 
ATOM     18  C   UNL     1       1.267   1.974 -22.534  0.00  0.00    -0.001 C 
ATOM     19  C   UNL     1       1.948   1.439 -21.564  0.00  0.00    +0.016 C 
ENDROOT
BRANCH   1  21
ATOM     20  C   UNL     1       4.256   2.065 -21.383  0.00  0.00    +0.086 C 
ATOM     21  C   UNL     1       3.417   1.292 -22.006  0.00  0.00    +0.134 C 
ATOM     22  O   UNL     1       3.468   0.004 -21.831  0.00  0.00    -0.297 OA
ENDBRANCH   1  21
BRANCH  10  23
ATOM     23  O   UNL     1      -6.359   3.607 -22.429  0.00  0.00    -0.392 OA
ATOM     24  H   UNL     1      -6.525   4.408 -22.949  0.00  0.00    +0.210 HD
ENDBRANCH  10  23
TORSDOF 2
ENDMDL
MODEL 2
REMARK VINA RESULT:   -11.059      1.302      6.581
REMARK INTER + INTRA:          -8.853
REMARK INTER:                 -12.029
REMARK INTRA:                   3.176
REMARK UNBOUND:                 3.176
REMARK  Name = ZINC000004104908
REMARK  5 active torsions:
REMARK  status: ('A' for Active; 'I' for Inactive)
REMARK    1  A    between atoms: C_1  and  C_2
REMARK    2  A    between atoms: C_2  and  C_4
REMARK    3  A    between atoms: C_13  and  O_14
REMARK    4  A    between atoms: C_17  and  C_18
REMARK    5  A    between atoms: C_22  and  C_23
REMARK                            x       y       z     vdW  Elec       q    Type
REMARK                         _______ _______ _______ _____ _____    ______ ____
ROOT
ATOM      1  C   UNL     1      -3.417   3.515 -24.086  0.00  0.00    +0.069 C 
ATOM      2  C   UNL     1      -3.875   3.160 -22.922  0.00  0.00    +0.039 C 
ATOM      3  C   UNL     1      -2.885   2.680 -22.230  0.00  0.00    -0.026 C 
ATOM      4  C   UNL     1      -1.815   2.736 -22.966  0.00  0.00    -0.063 C 
ATOM      5  C   UNL     1      -0.584   2.385 -22.739  0.00  0.00    +0.019 C 
ATOM      6  C   UNL     1      -0.256   1.868 -21.592  0.00  0.00    +0.008 C 
ATOM      7  C   UNL     1       0.975   1.517 -21.366  0.00  0.00    +0.005 C 
ATOM      8  C   UNL     1       1.878   1.681 -22.287  0.00  0.00    -0.002 C 
ATOM      9  C   UNL     1       3.108   1.330 -22.061  0.00  0.00    +0.035 C 
ATOM     10  C   UNL     1       4.012   1.495 -22.982  0.00  0.00    +0.115 C 
ATOM     11  C   UNL     1       3.683   2.011 -24.129  0.00  0.00    +0.032 C 
ATOM     12  C   UNL     1       2.452   2.363 -24.355  0.00  0.00    +0.010 C 
ATOM     13  C   UNL     1       1.549   2.198 -23.434  0.00  0.00    -0.026 C 
ATOM     14  C   UNL     1       1.221   2.715 -24.581  0.00  0.00    +0.012 C 
ATOM     15  C   UNL     1       0.318   2.550 -23.660  0.00  0.00    +0.002 C 
ATOM     16  C   UNL     1      -0.010   3.066 -24.807  0.00  0.00    +0.005 C 
ATOM     17  C   UNL     1      -1.241   3.418 -25.034  0.00  0.00    +0.012 C 
ATOM     18  C   UNL     1      -2.143   3.253 -24.113  0.00  0.00    -0.001 C 
ATOM     19  C   UNL     1      -2.598   3.778 -25.211  0.00  0.00    +0.016 C 
ENDROOT
BRANCH   1  21
ATOM     20  C   UNL     1      -4.747   3.273 -25.886  0.00  0.00    +0.086 C 
ATOM     21  C   UNL     1      -4.109   4.040 -25.052  0.00  0.00    +0.134 C 
ATOM     22  O   UNL     1      -4.164   5.333 -25.185  0.00  0.00    -0.297 OA
ENDBRANCH   1  21
BRANCH  10  23
ATOM     23  O   UNL     1       5.242   1.143 -22.755  0.00  0.00    -0.392 OA
ATOM     24  H   UNL     1       5.352   0.938 -21.814  0.00  0.00    +0.210 HD
ENDBRANCH  10  23
TORSDOF 2
ENDMDL
MODEL 3
REMARK VINA RESULT:   -11.029      1.035      6.093
REMARK INTER + INTRA:          -8.820
REMARK INTER:                 -12.112
REMARK INTRA:                   3.292
REMARK UNBOUND:                 3.176
REMARK  Name = ZINC000004104908
REMARK  5 active torsions:
REMARK  status: ('A' for Active; 'I' for Inactive)
REMARK    1  A    between atoms: C_1  and  C_2
REMARK    2  A    between atoms: C_2  and  C_4
REMARK    3  A    between atoms: C_13  and  O_14
REMARK    4  A    between atoms: C_17  and  C_18
REMARK    5  A    between atoms: C_22  and  C_23
REMARK                            x       y       z     vdW  Elec       q    Type
REMARK                         _______ _______ _______ _____ _____    ______ ____
ROOT
ATOM      1  C   UNL     1      -3.359   3.446 -22.564  0.00  0.00    +0.069 C 
ATOM      2  C   UNL     1      -3.430   3.924 -23.771  0.00  0.00    +0.039 C 
ATOM      3  C   UNL     1      -2.278   3.741 -24.344  0.00  0.00    -0.026 C 
ATOM      4  C   UNL     1      -1.494   3.150 -23.492  0.00  0.00    -0.063 C 
ATOM      5  C   UNL     1      -0.259   2.754 -23.576  0.00  0.00    +0.019 C 
ATOM      6  C   UNL     1       0.409   2.937 -24.676  0.00  0.00    +0.008 C 
ATOM      7  C   UNL     1       1.644   2.541 -24.759  0.00  0.00    +0.005 C 
ATOM      8  C   UNL     1       2.212   1.962 -23.743  0.00  0.00    -0.002 C 
ATOM      9  C   UNL     1       3.447   1.567 -23.826  0.00  0.00    +0.035 C 
ATOM     10  C   UNL     1       4.015   0.988 -22.810  0.00  0.00    +0.115 C 
ATOM     11  C   UNL     1       3.347   0.806 -21.709  0.00  0.00    +0.032 C 
ATOM     12  C   UNL     1       2.111   1.202 -21.626  0.00  0.00    +0.010 C 
ATOM     13  C   UNL     1       1.544   1.780 -22.643  0.00  0.00    -0.026 C 
ATOM     14  C   UNL     1       0.876   1.598 -21.542  0.00  0.00    +0.012 C 
ATOM     15  C   UNL     1       0.309   2.176 -22.559  0.00  0.00    +0.002 C 
ATOM     16  C   UNL     1      -0.360   1.994 -21.459  0.00  0.00    +0.005 C 
ATOM     17  C   UNL     1      -1.595   2.389 -21.375  0.00  0.00    +0.012 C 
ATOM     18  C   UNL     1      -2.162   2.967 -22.391  0.00  0.00    -0.001 C 
ATOM     19  C   UNL     1      -2.935   2.845 -21.354  0.00  0.00    +0.016 C 
ENDROOT
BRANCH   1  21
ATOM     20  C   UNL     1      -5.347   2.672 -21.844  0.00  0.00    +0.086 C 
ATOM     21  C   UNL     1      -4.315   3.446 -21.685  0.00  0.00    +0.134 C 
ATOM     22  O   UNL     1      -4.241   4.223 -20.643  0.00  0.00    -0.297 OA
ENDBRANCH   1  21
BRANCH  10  23
ATOM     23  O   UNL     1       5.250   0.593 -22.894  0.00  0.00    -0.392 OA
ATOM     24  H   UNL     1       5.842   1.352 -22.777  0.00  0.00    +0.210 HD
ENDBRANCH  10  23
TORSDOF 2
ENDMDL
MODEL 4
REMARK VINA RESULT:   -10.324      1.191      2.520
REMARK INTER + INTRA:          -8.053
REMARK INTER:                 -11.254
REMARK INTRA:                   3.200
REMARK UNBOUND:                 3.176
REMARK  Name = ZINC000004104908
REMARK  5 active torsions:
REMARK  status: ('A' for Active; 'I' for Inactive)
REMARK    1  A    between atoms: C_1  and  C_2
REMARK    2  A    between atoms: C_2  and  C_4
REMARK    3  A    between atoms: C_13  and  O_14
REMARK    4  A    between atoms: C_17  and  C_18
REMARK    5  A    between atoms: C_22  and  C_23
REMARK                            x       y       z     vdW  Elec       q    Type
REMARK                         _______ _______ _______ _____ _____    ______ ____
ROOT
ATOM      1  C   UNL     1       2.650   2.122 -22.645  0.00  0.00    +0.069 C 
ATOM      2  C   UNL     1       2.486   1.477 -21.528  0.00  0.00    +0.039 C 
ATOM      3  C   UNL     1       1.221   1.500 -21.232  0.00  0.00    -0.026 C 
ATOM      4  C   UNL     1       0.601   2.160 -22.166  0.00  0.00    -0.063 C 
ATOM      5  C   UNL     1      -0.652   2.461 -22.333  0.00  0.00    +0.019 C 
ATOM      6  C   UNL     1      -1.535   2.077 -21.460  0.00  0.00    +0.008 C 
ATOM      7  C   UNL     1      -2.788   2.377 -21.628  0.00  0.00    +0.005 C 
ATOM      8  C   UNL     1      -3.160   3.062 -22.669  0.00  0.00    -0.002 C 
ATOM      9  C   UNL     1      -4.412   3.363 -22.837  0.00  0.00    +0.035 C 
ATOM     10  C   UNL     1      -4.784   4.048 -23.878  0.00  0.00    +0.115 C 
ATOM     11  C   UNL     1      -3.900   4.432 -24.751  0.00  0.00    +0.032 C 
ATOM     12  C   UNL     1      -2.647   4.131 -24.583  0.00  0.00    +0.010 C 
ATOM     13  C   UNL     1      -2.276   3.446 -23.542  0.00  0.00    -0.026 C 
ATOM     14  C   UNL     1      -1.393   3.830 -24.415  0.00  0.00    +0.012 C 
ATOM     15  C   UNL     1      -1.023   3.145 -23.374  0.00  0.00    +0.002 C 
ATOM     16  C   UNL     1      -0.139   3.529 -24.247  0.00  0.00    +0.005 C 
ATOM     17  C   UNL     1       1.114   3.229 -24.080  0.00  0.00    +0.012 C 
ATOM     18  C   UNL     1       1.485   2.544 -23.039  0.00  0.00    -0.001 C 
ATOM     19  C   UNL     1       2.461   2.867 -23.834  0.00  0.00    +0.016 C 
ENDROOT
BRANCH   1  21
ATOM     20  C   UNL     1       4.188   1.455 -24.148  0.00  0.00    +0.086 C 
ATOM     21  C   UNL     1       3.779   2.311 -23.260  0.00  0.00    +0.134 C 
ATOM     22  O   UNL     1       4.500   3.358 -22.986  0.00  0.00    -0.297 OA
ENDBRANCH   1  21
BRANCH  10  23
ATOM     23  O   UNL     1      -6.037   4.348 -24.045  0.00  0.00    -0.392 OA
ATOM     24  H   UNL     1      -6.115   5.060 -24.698  0.00  0.00    +0.210 HD
ENDBRANCH  10  23
TORSDOF 2
ENDMDL
MODEL 5
REMARK VINA RESULT:    -9.659      1.916      6.911
REMARK INTER + INTRA:          -7.331
REMARK INTER:                 -10.531
REMARK INTRA:                   3.200
REMARK UNBOUND:                 3.176
REMARK  Name = ZINC000004104908
REMARK  5 active torsions:
REMARK  status: ('A' for Active; 'I' for Inactive)
REMARK    1  A    between atoms: C_1  and  C_2
REMARK    2  A    between atoms: C_2  and  C_4
REMARK    3  A    between atoms: C_13  and  O_14
REMARK    4  A    between atoms: C_17  and  C_18
REMARK    5  A    between atoms: C_22  and  C_23
REMARK                            x       y       z     vdW  Elec       q    Type
REMARK                         _______ _______ _______ _____ _____    ______ ____
ROOT
ATOM      1  C   UNL     1      -1.454   2.777 -22.480  0.00  0.00    +0.069 C 
ATOM      2  C   UNL     1      -1.584   1.690 -21.779  0.00  0.00    +0.039 C 
ATOM      3  C   UNL     1      -0.395   1.241 -21.510  0.00  0.00    -0.026 C 
ATOM      4  C   UNL     1       0.472   2.050 -22.045  0.00  0.00    -0.063 C 
ATOM      5  C   UNL     1       1.771   2.043 -22.063  0.00  0.00    +0.019 C 
ATOM      6  C   UNL     1       2.425   1.094 -21.464  0.00  0.00    +0.008 C 
ATOM      7  C   UNL     1       3.725   1.089 -21.482  0.00  0.00    +0.005 C 
ATOM      8  C   UNL     1       4.371   2.033 -22.101  0.00  0.00    -0.002 C 
ATOM      9  C   UNL     1       5.670   2.028 -22.119  0.00  0.00    +0.035 C 
ATOM     10  C   UNL     1       6.316   2.971 -22.738  0.00  0.00    +0.115 C 
ATOM     11  C   UNL     1       5.661   3.921 -23.338  0.00  0.00    +0.032 C 
ATOM     12  C   UNL     1       4.361   3.926 -23.319  0.00  0.00    +0.010 C 
ATOM     13  C   UNL     1       3.716   2.982 -22.700  0.00  0.00    -0.026 C 
ATOM     14  C   UNL     1       3.061   3.932 -23.300  0.00  0.00    +0.012 C 
ATOM     15  C   UNL     1       2.416   2.988 -22.682  0.00  0.00    +0.002 C 
ATOM     16  C   UNL     1       1.761   3.937 -23.282  0.00  0.00    +0.005 C 
ATOM     17  C   UNL     1       0.462   3.943 -23.263  0.00  0.00    +0.012 C 
ATOM     18  C   UNL     1      -0.183   2.999 -22.645  0.00  0.00    -0.001 C 
ATOM     19  C   UNL     1      -0.952   3.886 -23.203  0.00  0.00    +0.016 C 
ENDROOT
BRANCH   1  21
ATOM     20  C   UNL     1      -2.919   3.277 -24.116  0.00  0.00    +0.086 C 
ATOM     21  C   UNL     1      -2.423   3.512 -22.937  0.00  0.00    +0.134 C 
ATOM     22  O   UNL     1      -2.898   4.484 -22.214  0.00  0.00    -0.297 OA
ENDBRANCH   1  21
BRANCH  10  23
ATOM     23  O   UNL     1       7.616   2.965 -22.756  0.00  0.00    -0.392 OA
ATOM     24  H   UNL     1       7.935   3.712 -23.285  0.00  0.00    +0.210 HD
ENDBRANCH  10  23
TORSDOF 2
ENDMDL
MODEL 6
REMARK VINA RESULT:    -9.624      2.184      6.653
REMARK INTER + INTRA:          -7.292
REMARK INTER:                 -10.469
REMARK INTRA:                   3.177
REMARK UNBOUND:                 3.176
REMARK  Name = ZINC000004104908
REMARK  5 active torsions:
REMARK  status: ('A' for Active; 'I' for Inactive)
REMARK    1  A    between atoms: C_1  and  C_2
REMARK    2  A    between atoms: C_2  and  C_4
REMARK    3  A    between atoms: C_13  and  O_14
REMARK    4  A    between atoms: C_17  and  C_18
REMARK    5  A    between atoms: C_22  and  C_23
REMARK                            x       y       z     vdW  Elec       q    Type
REMARK                         _______ _______ _______ _____ _____    ______ ____
ROOT
ATOM      1  C   UNL     1      -1.520   3.621 -23.413  0.00  0.00    +0.069 C 
ATOM      2  C   UNL     1      -1.540   4.913 -23.559  0.00  0.00    +0.039 C 
ATOM      3  C   UNL     1      -0.316   5.344 -23.489  0.00  0.00    -0.026 C 
ATOM      4  C   UNL     1       0.462   4.320 -23.299  0.00  0.00    -0.063 C 
ATOM      5  C   UNL     1       1.750   4.220 -23.162  0.00  0.00    +0.019 C 
ATOM      6  C   UNL     1       2.494   5.284 -23.210  0.00  0.00    +0.008 C 
ATOM      7  C   UNL     1       3.783   5.183 -23.073  0.00  0.00    +0.005 C 
ATOM      8  C   UNL     1       4.328   4.017 -22.889  0.00  0.00    -0.002 C 
ATOM      9  C   UNL     1       5.616   3.916 -22.753  0.00  0.00    +0.035 C 
ATOM     10  C   UNL     1       6.162   2.750 -22.569  0.00  0.00    +0.115 C 
ATOM     11  C   UNL     1       5.418   1.685 -22.522  0.00  0.00    +0.032 C 
ATOM     12  C   UNL     1       4.129   1.786 -22.658  0.00  0.00    +0.010 C 
ATOM     13  C   UNL     1       3.584   2.952 -22.842  0.00  0.00    -0.026 C 
ATOM     14  C   UNL     1       2.840   1.887 -22.795  0.00  0.00    +0.012 C 
ATOM     15  C   UNL     1       2.295   3.053 -22.979  0.00  0.00    +0.002 C 
ATOM     16  C   UNL     1       1.551   1.988 -22.931  0.00  0.00    +0.005 C 
ATOM     17  C   UNL     1       0.262   2.089 -23.068  0.00  0.00    +0.012 C 
ATOM     18  C   UNL     1      -0.283   3.255 -23.251  0.00  0.00    -0.001 C 
ATOM     19  C   UNL     1      -1.133   2.272 -23.224  0.00  0.00    +0.016 C 
ENDROOT
BRANCH   1  21
ATOM     20  C   UNL     1      -3.227   2.627 -22.332  0.00  0.00    +0.086 C 
ATOM     21  C   UNL     1      -2.554   2.835 -23.425  0.00  0.00    +0.134 C 
ATOM     22  O   UNL     1      -2.917   2.255 -24.531  0.00  0.00    -0.297 OA
ENDBRANCH   1  21
BRANCH  10  23
ATOM     23  O   UNL     1       7.451   2.650 -22.433  0.00  0.00    -0.392 OA
ATOM     24  H   UNL     1       7.890   3.238 -23.067  0.00  0.00    +0.210 HD
ENDBRANCH  10  23
TORSDOF 2
ENDMDL
