MODEL 1
REMARK VINA RESULT:    -9.664      0.000      0.000
REMARK INTER + INTRA:          -4.953
REMARK INTER:                 -12.301
REMARK INTRA:                   7.347
REMARK UNBOUND:                 8.382
REMARK  Name = CCCC[C@@H](O)[C@]12Oc3c(OC)ccc4c3[C@@]13CCN(C)[C@@H](C4)C3=CC=C2OC   ZINC000253505583
REMARK  11 active torsions:
REMARK  status: ('A' for Active; 'I' for Inactive)
REMARK    1  A    between atoms: C_1  and  C_2
REMARK    2  A    between atoms: C_2  and  C_3
REMARK    3  A    between atoms: C_3  and  C_4
REMARK    4  A    between atoms: C_4  and  C_5
REMARK    5  A    between atoms: C_5  and  O_6
REMARK    6  A    between atoms: C_5  and  C_7
REMARK    7  A    between atoms: C_10  and  O_11
REMARK    8  A    between atoms: O_11  and  C_12
REMARK    9  A    between atoms: N_20  and  C_21
REMARK   10  A    between atoms: C_27  and  O_28
REMARK   11  A    between atoms: O_28  and  C_29
REMARK                            x       y       z     vdW  Elec       q    Type
REMARK                         _______ _______ _______ _____ _____    ______ ____
ROOT
ATOM      1  C   UNL     1      -1.542   3.207 -23.771  0.00  0.00    +0.206 C 
ATOM      2  O   UNL     1      -1.889   3.085 -22.304  0.00  0.00    -0.470 OA
ATOM      3  C   UNL     1      -3.359   3.157 -22.024  0.00  0.00    +0.168 A 
ATOM      4  C   UNL     1      -4.273   3.131 -21.146  0.00  0.00    +0.162 A 
ATOM      5  C   UNL     1      -5.484   3.248 -21.494  0.00  0.00    +0.050 A 
ATOM      6  C   UNL     1      -5.779   3.388 -22.704  0.00  0.00    +0.008 A 
ATOM      7  C   UNL     1      -4.879   3.413 -23.571  0.00  0.00    -0.034 A 
ATOM      8  C   UNL     1      -5.175   3.555 -24.800  0.00  0.00    +0.094 C 
ATOM      9  C   UNL     1      -4.277   3.580 -25.668  0.00  0.00    +0.096 C 
ATOM     10  C   UNL     1      -3.067   3.464 -25.316  0.00  0.00    -0.007 C 
ATOM     11  C   UNL     1      -2.156   3.489 -26.192  0.00  0.00    +0.009 C 
ATOM     12  C   UNL     1      -0.955   3.375 -25.859  0.00  0.00    +0.045 C 
ATOM     13  N   UNL     1      -3.328   3.621 -26.727  0.00  0.00    +0.239 N 
ATOM     14  H   UNL     1      -3.629   3.738 -27.694  0.00  0.00    +0.204 HD
ATOM     15  C   UNL     1      -3.685   3.764 -27.919  0.00  0.00    +0.191 C 
ATOM     16  C   UNL     1      -1.967   3.494 -26.378  0.00  0.00    +0.133 C 
ATOM     17  C   UNL     1      -1.664   3.338 -25.008  0.00  0.00    +0.071 C 
ATOM     18  C   UNL     1      -3.668   3.299 -23.243  0.00  0.00    +0.016 A 
ATOM     19  C   UNL     1      -0.642   3.233 -24.645  0.00  0.00    +0.144 C 
ATOM     20  C   UNL     1      -2.766   3.323 -24.109  0.00  0.00    +0.080 C 
ENDROOT
BRANCH   4  21
ATOM     21  O   UNL     1      -3.977   2.991 -19.936  0.00  0.00    -0.491 OA
ATOM     22  C   UNL     1      -3.139   3.751 -19.404  0.00  0.00    +0.277 C 
ENDBRANCH   4  21
BRANCH  19  23
ATOM     23  O   UNL     1       0.700   3.128 -24.504  0.00  0.00    -0.495 OA
ATOM     24  C   UNL     1       1.445   2.961 -25.543  0.00  0.00    +0.276 C 
ENDBRANCH  19  23
BRANCH   1  25
ATOM     25  C   UNL     1      -0.392   3.059 -23.067  0.00  0.00    +0.167 C 
BRANCH  25  26
ATOM     26  O   UNL     1       0.262   4.068 -22.733  0.00  0.00    -0.387 OA
ATOM     27  H   UNL     1       0.015   4.815 -23.300  0.00  0.00    +0.210 HD
ENDBRANCH  25  26
BRANCH  25  28
ATOM     28  C   UNL     1       0.041   1.920 -22.735  0.00  0.00    +0.036 C 
BRANCH  28  29
ATOM     29  C   UNL     1       0.697   1.727 -21.674  0.00  0.00    +0.002 C 
BRANCH  29  31
ATOM     30  C   UNL     1       2.896   1.924 -21.691  0.00  0.00    +0.004 C 
ATOM     31  C   UNL     1       1.865   1.212 -21.767  0.00  0.00    -0.003 C 
ENDBRANCH  29  31
ENDBRANCH  28  29
ENDBRANCH  25  28
ENDBRANCH   1  25
TORSDOF 7
ENDMDL
MODEL 2
REMARK VINA RESULT:    -9.069      1.980      4.281
REMARK INTER + INTRA:          -4.132
REMARK INTER:                 -11.713
REMARK INTRA:                   7.580
REMARK UNBOUND:                 8.382
REMARK  Name = CCCC[C@@H](O)[C@]12Oc3c(OC)ccc4c3[C@@]13CCN(C)[C@@H](C4)C3=CC=C2OC   ZINC000253505583
REMARK  11 active torsions:
REMARK  status: ('A' for Active; 'I' for Inactive)
REMARK    1  A    between atoms: C_1  and  C_2
REMARK    2  A    between atoms: C_2  and  C_3
REMARK    3  A    between atoms: C_3  and  C_4
REMARK    4  A    between atoms: C_4  and  C_5
REMARK    5  A    between atoms: C_5  and  O_6
REMARK    6  A    between atoms: C_5  and  C_7
REMARK    7  A    between atoms: C_10  and  O_11
REMARK    8  A    between atoms: O_11  and  C_12
REMARK    9  A    between atoms: N_20  and  C_21
REMARK   10  A    between atoms: C_27  and  O_28
REMARK   11  A    between atoms: O_28  and  C_29
REMARK                            x       y       z     vdW  Elec       q    Type
REMARK                         _______ _______ _______ _____ _____    ______ ____
ROOT
ATOM      1  C   UNL     1      -1.242   2.882 -23.273  0.00  0.00    +0.206 C 
ATOM      2  O   UNL     1      -1.302   3.116 -24.766  0.00  0.00    -0.470 OA
ATOM      3  C   UNL     1      -2.679   3.409 -25.276  0.00  0.00    +0.168 A 
ATOM      4  C   UNL     1      -3.402   3.674 -26.283  0.00  0.00    +0.162 A 
ATOM      5  C   UNL     1      -4.647   3.847 -26.137  0.00  0.00    +0.050 A 
ATOM      6  C   UNL     1      -5.164   3.757 -24.999  0.00  0.00    +0.008 A 
ATOM      7  C   UNL     1      -4.452   3.496 -24.005  0.00  0.00    -0.034 A 
ATOM      8  C   UNL     1      -4.975   3.404 -22.849  0.00  0.00    +0.094 C 
ATOM      9  C   UNL     1      -4.265   3.143 -21.853  0.00  0.00    +0.096 C 
ATOM     10  C   UNL     1      -3.021   2.971 -22.004  0.00  0.00    -0.007 C 
ATOM     11  C   UNL     1      -2.300   2.706 -21.000  0.00  0.00    +0.009 C 
ATOM     12  C   UNL     1      -1.068   2.533 -21.133  0.00  0.00    +0.045 C 
ATOM     13  N   UNL     1      -3.542   2.851 -20.663  0.00  0.00    +0.239 N 
ATOM     14  H   UNL     1      -4.019   2.790 -19.764  0.00  0.00    +0.204 HD
ATOM     15  C   UNL     1      -4.117   2.774 -19.553  0.00  0.00    +0.191 C 
ATOM     16  C   UNL     1      -2.151   2.651 -20.787  0.00  0.00    +0.133 C 
ATOM     17  C   UNL     1      -1.596   2.758 -22.080  0.00  0.00    +0.071 C 
ATOM     18  C   UNL     1      -3.212   3.321 -24.132  0.00  0.00    +0.016 A 
ATOM     19  C   UNL     1      -0.533   2.620 -22.272  0.00  0.00    +0.144 C 
ATOM     20  C   UNL     1      -2.498   3.059 -23.138  0.00  0.00    +0.080 C 
ENDROOT
BRANCH   4  21
ATOM     21  O   UNL     1      -2.885   3.764 -27.421  0.00  0.00    -0.491 OA
ATOM     22  C   UNL     1      -3.520   3.386 -28.430  0.00  0.00    +0.277 C 
ENDBRANCH   4  21
BRANCH  19  23
ATOM     23  O   UNL     1       0.801   2.399 -22.195  0.00  0.00    -0.495 OA
ATOM     24  C   UNL     1       1.272   1.626 -21.277  0.00  0.00    +0.276 C 
ENDBRANCH  19  23
BRANCH   1  25
ATOM     25  C   UNL     1       0.011   2.762 -23.778  0.00  0.00    +0.167 C 
BRANCH  25  26
ATOM     26  O   UNL     1       0.461   1.631 -24.050  0.00  0.00    -0.387 OA
ATOM     27  H   UNL     1       1.395   1.705 -24.298  0.00  0.00    +0.210 HD
ENDBRANCH  25  26
BRANCH  25  28
ATOM     28  C   UNL     1       0.743   3.770 -23.984  0.00  0.00    +0.036 C 
BRANCH  28  29
ATOM     29  C   UNL     1       1.877   3.684 -24.530  0.00  0.00    +0.002 C 
BRANCH  29  31
ATOM     30  C   UNL     1       2.816   5.128 -23.148  0.00  0.00    +0.004 C 
ATOM     31  C   UNL     1       2.896   4.115 -23.887  0.00  0.00    -0.003 C 
ENDBRANCH  29  31
ENDBRANCH  28  29
ENDBRANCH  25  28
ENDBRANCH   1  25
TORSDOF 7
ENDMDL
MODEL 3
REMARK VINA RESULT:    -7.930      2.318      5.302
REMARK INTER + INTRA:          -2.561
REMARK INTER:                 -10.637
REMARK INTRA:                   8.076
REMARK UNBOUND:                 8.382
REMARK  Name = CCCC[C@@H](O)[C@]12Oc3c(OC)ccc4c3[C@@]13CCN(C)[C@@H](C4)C3=CC=C2OC   ZINC000253505583
REMARK  11 active torsions:
REMARK  status: ('A' for Active; 'I' for Inactive)
REMARK    1  A    between atoms: C_1  and  C_2
REMARK    2  A    between atoms: C_2  and  C_3
REMARK    3  A    between atoms: C_3  and  C_4
REMARK    4  A    between atoms: C_4  and  C_5
REMARK    5  A    between atoms: C_5  and  O_6
REMARK    6  A    between atoms: C_5  and  C_7
REMARK    7  A    between atoms: C_10  and  O_11
REMARK    8  A    between atoms: O_11  and  C_12
REMARK    9  A    between atoms: N_20  and  C_21
REMARK   10  A    between atoms: C_27  and  O_28
REMARK   11  A    between atoms: O_28  and  C_29
REMARK                            x       y       z     vdW  Elec       q    Type
REMARK                         _______ _______ _______ _____ _____    ______ ____
ROOT
ATOM      1  C   UNL     1       0.123   2.775 -23.965  0.00  0.00    +0.206 C 
ATOM      2  O   UNL     1       1.621   2.577 -23.992  0.00  0.00    -0.470 OA
ATOM      3  C   UNL     1       2.178   2.011 -22.722  0.00  0.00    +0.168 A 
ATOM      4  C   UNL     1       3.212   1.627 -22.096  0.00  0.00    +0.162 A 
ATOM      5  C   UNL     1       3.105   1.188 -20.914  0.00  0.00    +0.050 A 
ATOM      6  C   UNL     1       1.981   1.133 -20.363  0.00  0.00    +0.008 A 
ATOM      7  C   UNL     1       0.961   1.512 -20.979  0.00  0.00    -0.034 A 
ATOM      8  C   UNL     1      -0.181   1.457 -20.422  0.00  0.00    +0.094 C 
ATOM      9  C   UNL     1      -1.203   1.835 -21.036  0.00  0.00    +0.096 C 
ATOM     10  C   UNL     1      -1.092   2.273 -22.217  0.00  0.00    -0.007 C 
ATOM     11  C   UNL     1      -2.123   2.657 -22.841  0.00  0.00    +0.009 C 
ATOM     12  C   UNL     1      -2.029   3.093 -24.011  0.00  0.00    +0.045 C 
ATOM     13  N   UNL     1      -2.419   2.241 -21.651  0.00  0.00    +0.239 N 
ATOM     14  H   UNL     1      -3.306   2.173 -21.152  0.00  0.00    +0.204 HD
ATOM     15  C   UNL     1      -3.514   2.162 -21.048  0.00  0.00    +0.191 C 
ATOM     16  C   UNL     1      -2.340   2.736 -22.970  0.00  0.00    +0.133 C 
ATOM     17  C   UNL     1      -1.062   2.787 -23.565  0.00  0.00    +0.071 C 
ATOM     18  C   UNL     1       1.048   1.951 -22.155  0.00  0.00    +0.016 A 
ATOM     19  C   UNL     1      -0.904   3.154 -24.579  0.00  0.00    +0.144 C 
ATOM     20  C   UNL     1       0.029   2.331 -22.774  0.00  0.00    +0.080 C 
ENDROOT
BRANCH   4  21
ATOM     21  O   UNL     1       4.336   1.682 -22.647  0.00  0.00    -0.491 OA
ATOM     22  C   UNL     1       4.936   2.775 -22.739  0.00  0.00    +0.277 C 
ENDBRANCH   4  21
BRANCH  19  23
ATOM     23  O   UNL     1      -1.025   3.652 -25.832  0.00  0.00    -0.495 OA
ATOM     24  C   UNL     1      -2.165   3.614 -26.431  0.00  0.00    +0.276 C 
ENDBRANCH  19  23
BRANCH   1  25
ATOM     25  C   UNL     1       0.589   3.175 -25.175  0.00  0.00    +0.167 C 
BRANCH  25  26
ATOM     26  O   UNL     1       0.649   2.357 -26.114  0.00  0.00    -0.387 OA
ATOM     27  H   UNL     1       1.264   2.684 -26.789  0.00  0.00    +0.210 HD
ENDBRANCH  25  26
BRANCH  25  28
ATOM     28  C   UNL     1       0.967   4.362 -25.381  0.00  0.00    +0.036 C 
BRANCH  28  29
ATOM     29  C   UNL     1       1.975   4.861 -24.808  0.00  0.00    +0.002 C 
BRANCH  29  31
ATOM     30  C   UNL     1       2.747   5.750 -22.939  0.00  0.00    +0.004 C 
ATOM     31  C   UNL     1       1.795   5.519 -23.725  0.00  0.00    -0.003 C 
ENDBRANCH  29  31
ENDBRANCH  28  29
ENDBRANCH  25  28
ENDBRANCH   1  25
TORSDOF 7
ENDMDL
MODEL 4
REMARK VINA RESULT:    -7.540      5.806      8.757
REMARK INTER + INTRA:          -2.022
REMARK INTER:                  -9.393
REMARK INTRA:                   7.371
REMARK UNBOUND:                 8.382
REMARK  Name = CCCC[C@@H](O)[C@]12Oc3c(OC)ccc4c3[C@@]13CCN(C)[C@@H](C4)C3=CC=C2OC   ZINC000253505583
REMARK  11 active torsions:
REMARK  status: ('A' for Active; 'I' for Inactive)
REMARK    1  A    between atoms: C_1  and  C_2
REMARK    2  A    between atoms: C_2  and  C_3
REMARK    3  A    between atoms: C_3  and  C_4
REMARK    4  A    between atoms: C_4  and  C_5
REMARK    5  A    between atoms: C_5  and  O_6
REMARK    6  A    between atoms: C_5  and  C_7
REMARK    7  A    between atoms: C_10  and  O_11
REMARK    8  A    between atoms: O_11  and  C_12
REMARK    9  A    between atoms: N_20  and  C_21
REMARK   10  A    between atoms: C_27  and  O_28
REMARK   11  A    between atoms: O_28  and  C_29
REMARK                            x       y       z     vdW  Elec       q    Type
REMARK                         _______ _______ _______ _____ _____    ______ ____
ROOT
ATOM      1  C   UNL     1       4.955   6.592 -22.158  0.00  0.00    +0.206 C 
ATOM      2  O   UNL     1       3.453   6.711 -22.286  0.00  0.00    -0.470 OA
ATOM      3  C   UNL     1       2.808   5.528 -22.940  0.00  0.00    +0.168 A 
ATOM      4  C   UNL     1       1.729   4.992 -23.333  0.00  0.00    +0.162 A 
ATOM      5  C   UNL     1       1.755   3.852 -23.883  0.00  0.00    +0.050 A 
ATOM      6  C   UNL     1       2.845   3.255 -24.038  0.00  0.00    +0.008 A 
ATOM      7  C   UNL     1       3.910   3.782 -23.650  0.00  0.00    -0.034 A 
ATOM      8  C   UNL     1       5.019   3.177 -23.807  0.00  0.00    +0.094 C 
ATOM      9  C   UNL     1       6.085   3.703 -23.420  0.00  0.00    +0.096 C 
ATOM     10  C   UNL     1       6.055   4.842 -22.872  0.00  0.00    -0.007 C 
ATOM     11  C   UNL     1       7.131   5.376 -22.480  0.00  0.00    +0.009 C 
ATOM     12  C   UNL     1       7.117   6.503 -21.935  0.00  0.00    +0.045 C 
ATOM     13  N   UNL     1       7.348   4.217 -23.015  0.00  0.00    +0.239 N 
ATOM     14  H   UNL     1       8.203   3.683 -23.168  0.00  0.00    +0.204 HD
ATOM     15  C   UNL     1       8.405   3.571 -23.198  0.00  0.00    +0.191 C 
ATOM     16  C   UNL     1       7.359   5.486 -22.398  0.00  0.00    +0.133 C 
ATOM     17  C   UNL     1       6.116   6.136 -22.236  0.00  0.00    +0.071 C 
ATOM     18  C   UNL     1       3.904   4.915 -23.102  0.00  0.00    +0.016 A 
ATOM     19  C   UNL     1       6.027   7.117 -21.772  0.00  0.00    +0.144 C 
ATOM     20  C   UNL     1       4.968   5.444 -22.714  0.00  0.00    +0.080 C 
ENDROOT
BRANCH   4  21
ATOM     21  O   UNL     1       0.638   5.589 -23.178  0.00  0.00    -0.491 OA
ATOM     22  C   UNL     1      -0.440   4.980 -23.351  0.00  0.00    +0.277 C 
ENDBRANCH   4  21
BRANCH  19  23
ATOM     23  O   UNL     1       6.234   8.311 -21.167  0.00  0.00    -0.495 OA
ATOM     24  C   UNL     1       7.433   8.686 -20.879  0.00  0.00    +0.276 C 
ENDBRANCH  19  23
BRANCH   1  25
ATOM     25  C   UNL     1       4.570   7.781 -21.630  0.00  0.00    +0.167 C 
BRANCH  25  26
ATOM     26  O   UNL     1       4.383   7.878 -20.400  0.00  0.00    -0.387 OA
ATOM     27  H   UNL     1       4.663   7.059 -19.965  0.00  0.00    +0.210 HD
ENDBRANCH  25  26
BRANCH  25  28
ATOM     28  C   UNL     1       4.394   8.802 -22.351  0.00  0.00    +0.036 C 
BRANCH  28  29
ATOM     29  C   UNL     1       3.795   9.832 -21.934  0.00  0.00    +0.002 C 
BRANCH  29  31
ATOM     30  C   UNL     1       3.342  11.969 -22.254  0.00  0.00    +0.004 C 
ATOM     31  C   UNL     1       3.795  10.876 -22.674  0.00  0.00    -0.003 C 
ENDBRANCH  29  31
ENDBRANCH  28  29
ENDBRANCH  25  28
ENDBRANCH   1  25
TORSDOF 7
ENDMDL
MODEL 5
REMARK VINA RESULT:    -7.359      4.398      7.997
REMARK INTER + INTRA:          -1.773
REMARK INTER:                  -9.210
REMARK INTRA:                   7.437
REMARK UNBOUND:                 8.382
REMARK  Name = CCCC[C@@H](O)[C@]12Oc3c(OC)ccc4c3[C@@]13CCN(C)[C@@H](C4)C3=CC=C2OC   ZINC000253505583
REMARK  11 active torsions:
REMARK  status: ('A' for Active; 'I' for Inactive)
REMARK    1  A    between atoms: C_1  and  C_2
REMARK    2  A    between atoms: C_2  and  C_3
REMARK    3  A    between atoms: C_3  and  C_4
REMARK    4  A    between atoms: C_4  and  C_5
REMARK    5  A    between atoms: C_5  and  O_6
REMARK    6  A    between atoms: C_5  and  C_7
REMARK    7  A    between atoms: C_10  and  O_11
REMARK    8  A    between atoms: O_11  and  C_12
REMARK    9  A    between atoms: N_20  and  C_21
REMARK   10  A    between atoms: C_27  and  O_28
REMARK   11  A    between atoms: O_28  and  C_29
REMARK                            x       y       z     vdW  Elec       q    Type
REMARK                         _______ _______ _______ _____ _____    ______ ____
ROOT
ATOM      1  C   UNL     1       3.177   4.673 -23.357  0.00  0.00    +0.206 C 
ATOM      2  O   UNL     1       2.841   6.116 -23.056  0.00  0.00    -0.470 OA
ATOM      3  C   UNL     1       3.974   6.887 -22.453  0.00  0.00    +0.168 A 
ATOM      4  C   UNL     1       4.376   8.000 -21.998  0.00  0.00    +0.162 A 
ATOM      5  C   UNL     1       5.560   8.114 -21.567  0.00  0.00    +0.050 A 
ATOM      6  C   UNL     1       6.334   7.129 -21.589  0.00  0.00    +0.008 A 
ATOM      7  C   UNL     1       5.940   6.030 -22.037  0.00  0.00    -0.034 A 
ATOM      8  C   UNL     1       6.724   5.029 -22.061  0.00  0.00    +0.094 C 
ATOM      9  C   UNL     1       6.331   3.929 -22.509  0.00  0.00    +0.096 C 
ATOM     10  C   UNL     1       5.147   3.820 -22.939  0.00  0.00    -0.007 C 
ATOM     11  C   UNL     1       4.747   2.709 -23.392  0.00  0.00    +0.009 C 
ATOM     12  C   UNL     1       3.577   2.585 -23.821  0.00  0.00    +0.045 C 
ATOM     13  N   UNL     1       5.978   2.641 -22.998  0.00  0.00    +0.239 N 
ATOM     14  H   UNL     1       6.653   1.876 -22.990  0.00  0.00    +0.204 HD
ATOM     15  C   UNL     1       6.798   1.694 -22.994  0.00  0.00    +0.191 C 
ATOM     16  C   UNL     1       4.665   2.475 -23.487  0.00  0.00    +0.133 C 
ATOM     17  C   UNL     1       3.815   3.602 -23.450  0.00  0.00    +0.071 C 
ATOM     18  C   UNL     1       4.765   5.898 -22.470  0.00  0.00    +0.016 A 
ATOM     19  C   UNL     1       2.786   3.568 -23.805  0.00  0.00    +0.144 C 
ATOM     20  C   UNL     1       4.368   4.800 -22.919  0.00  0.00    +0.080 C 
ENDROOT
BRANCH   4  21
ATOM     21  O   UNL     1       3.602   8.985 -21.976  0.00  0.00    -0.491 OA
ATOM     22  C   UNL     1       3.975  10.086 -22.438  0.00  0.00    +0.277 C 
ENDBRANCH   4  21
BRANCH  19  23
ATOM     23  O   UNL     1       1.579   3.221 -24.311  0.00  0.00    -0.495 OA
ATOM     24  C   UNL     1       1.506   2.362 -25.269  0.00  0.00    +0.276 C 
ENDBRANCH  19  23
BRANCH   1  25
ATOM     25  C   UNL     1       1.891   4.901 -23.724  0.00  0.00    +0.167 C 
BRANCH  25  26
ATOM     26  O   UNL     1       1.631   5.209 -24.904  0.00  0.00    -0.387 OA
ATOM     27  H   UNL     1       0.826   5.749 -24.928  0.00  0.00    +0.210 HD
ENDBRANCH  25  26
BRANCH  25  28
ATOM     28  C   UNL     1       0.940   4.809 -22.899  0.00  0.00    +0.036 C 
BRANCH  28  29
ATOM     29  C   UNL     1      -0.193   5.324 -23.111  0.00  0.00    +0.002 C 
BRANCH  29  31
ATOM     30  C   UNL     1      -2.037   4.291 -23.752  0.00  0.00    +0.004 C 
ATOM     31  C   UNL     1      -1.235   4.629 -22.846  0.00  0.00    -0.003 C 
ENDBRANCH  29  31
ENDBRANCH  28  29
ENDBRANCH  25  28
ENDBRANCH   1  25
TORSDOF 7
ENDMDL
MODEL 6
REMARK VINA RESULT:    -7.349      3.157      5.940
REMARK INTER + INTRA:          -1.760
REMARK INTER:                 -10.118
REMARK INTRA:                   8.358
REMARK UNBOUND:                 8.382
REMARK  Name = CCCC[C@@H](O)[C@]12Oc3c(OC)ccc4c3[C@@]13CCN(C)[C@@H](C4)C3=CC=C2OC   ZINC000253505583
REMARK  11 active torsions:
REMARK  status: ('A' for Active; 'I' for Inactive)
REMARK    1  A    between atoms: C_1  and  C_2
REMARK    2  A    between atoms: C_2  and  C_3
REMARK    3  A    between atoms: C_3  and  C_4
REMARK    4  A    between atoms: C_4  and  C_5
REMARK    5  A    between atoms: C_5  and  O_6
REMARK    6  A    between atoms: C_5  and  C_7
REMARK    7  A    between atoms: C_10  and  O_11
REMARK    8  A    between atoms: O_11  and  C_12
REMARK    9  A    between atoms: N_20  and  C_21
REMARK   10  A    between atoms: C_27  and  O_28
REMARK   11  A    between atoms: O_28  and  C_29
REMARK                            x       y       z     vdW  Elec       q    Type
REMARK                         _______ _______ _______ _____ _____    ______ ____
ROOT
ATOM      1  C   UNL     1       3.167   2.447 -23.447  0.00  0.00    +0.206 C 
ATOM      2  O   UNL     1       1.807   1.879 -23.782  0.00  0.00    -0.470 OA
ATOM      3  C   UNL     1       0.717   2.906 -23.823  0.00  0.00    +0.168 A 
ATOM      4  C   UNL     1      -0.515   3.137 -24.012  0.00  0.00    +0.162 A 
ATOM      5  C   UNL     1      -0.957   4.318 -23.911  0.00  0.00    +0.050 A 
ATOM      6  C   UNL     1      -0.178   5.258 -23.626  0.00  0.00    +0.008 A 
ATOM      7  C   UNL     1       1.037   5.031 -23.439  0.00  0.00    -0.034 A 
ATOM      8  C   UNL     1       1.830   5.983 -23.149  0.00  0.00    +0.094 C 
ATOM      9  C   UNL     1       3.045   5.759 -22.962  0.00  0.00    +0.096 C 
ATOM     10  C   UNL     1       3.483   4.577 -23.064  0.00  0.00    -0.007 C 
ATOM     11  C   UNL     1       4.712   4.347 -22.875  0.00  0.00    +0.009 C 
ATOM     12  C   UNL     1       5.159   3.182 -22.972  0.00  0.00    +0.045 C 
ATOM     13  N   UNL     1       4.441   5.605 -22.732  0.00  0.00    +0.239 N 
ATOM     14  H   UNL     1       5.024   6.409 -22.503  0.00  0.00    +0.204 HD
ATOM     15  C   UNL     1       5.168   6.584 -22.450  0.00  0.00    +0.191 C 
ATOM     16  C   UNL     1       4.970   4.301 -22.835  0.00  0.00    +0.133 C 
ATOM     17  C   UNL     1       4.070   3.263 -23.158  0.00  0.00    +0.071 C 
ATOM     18  C   UNL     1       1.495   3.863 -23.535  0.00  0.00    +0.016 A 
ATOM     19  C   UNL     1       4.388   2.226 -23.259  0.00  0.00    +0.144 C 
ATOM     20  C   UNL     1       2.710   3.634 -23.349  0.00  0.00    +0.080 C 
ENDROOT
BRANCH   4  21
ATOM     21  O   UNL     1      -1.293   2.197 -24.298  0.00  0.00    -0.491 OA
ATOM     22  C   UNL     1      -2.462   2.442 -24.666  0.00  0.00    +0.277 C 
ENDBRANCH   4  21
BRANCH  19  23
ATOM     23  O   UNL     1       5.071   1.058 -23.314  0.00  0.00    -0.495 OA
ATOM     24  C   UNL     1       6.038   0.840 -22.491  0.00  0.00    +0.276 C 
ENDBRANCH  19  23
BRANCH   1  25
ATOM     25  C   UNL     1       3.293   1.109 -23.630  0.00  0.00    +0.167 C 
BRANCH  25  26
ATOM     26  O   UNL     1       3.607   0.665 -24.752  0.00  0.00    -0.387 OA
ATOM     27  H   UNL     1       2.848   0.736 -25.352  0.00  0.00    +0.210 HD
ENDBRANCH  25  26
BRANCH  25  28
ATOM     28  C   UNL     1       3.100   0.290 -22.688  0.00  0.00    +0.036 C 
BRANCH  28  29
ATOM     29  C   UNL     1       2.160   0.424 -21.856  0.00  0.00    +0.002 C 
BRANCH  29  31
ATOM     30  C   UNL     1       1.514   1.607 -20.106  0.00  0.00    +0.004 C 
ATOM     31  C   UNL     1       2.412   1.001 -20.742  0.00  0.00    -0.003 C 
ENDBRANCH  29  31
ENDBRANCH  28  29
ENDBRANCH  25  28
ENDBRANCH   1  25
TORSDOF 7
ENDMDL
MODEL 7
REMARK VINA RESULT:    -7.338      5.355      9.006
REMARK INTER + INTRA:          -1.745
REMARK INTER:                  -9.161
REMARK INTRA:                   7.416
REMARK UNBOUND:                 8.382
REMARK  Name = CCCC[C@@H](O)[C@]12Oc3c(OC)ccc4c3[C@@]13CCN(C)[C@@H](C4)C3=CC=C2OC   ZINC000253505583
REMARK  11 active torsions:
REMARK  status: ('A' for Active; 'I' for Inactive)
REMARK    1  A    between atoms: C_1  and  C_2
REMARK    2  A    between atoms: C_2  and  C_3
REMARK    3  A    between atoms: C_3  and  C_4
REMARK    4  A    between atoms: C_4  and  C_5
REMARK    5  A    between atoms: C_5  and  O_6
REMARK    6  A    between atoms: C_5  and  C_7
REMARK    7  A    between atoms: C_10  and  O_11
REMARK    8  A    between atoms: O_11  and  C_12
REMARK    9  A    between atoms: N_20  and  C_21
REMARK   10  A    between atoms: C_27  and  O_28
REMARK   11  A    between atoms: O_28  and  C_29
REMARK                            x       y       z     vdW  Elec       q    Type
REMARK                         _______ _______ _______ _____ _____    ______ ____
ROOT
ATOM      1  C   UNL     1       4.760   4.572 -22.961  0.00  0.00    +0.206 C 
ATOM      2  O   UNL     1       4.082   5.731 -22.266  0.00  0.00    -0.470 OA
ATOM      3  C   UNL     1       5.023   6.821 -21.853  0.00  0.00    +0.168 A 
ATOM      4  C   UNL     1       5.155   7.952 -21.297  0.00  0.00    +0.162 A 
ATOM      5  C   UNL     1       6.302   8.478 -21.204  0.00  0.00    +0.050 A 
ATOM      6  C   UNL     1       7.305   7.882 -21.661  0.00  0.00    +0.008 A 
ATOM      7  C   UNL     1       7.176   6.767 -22.210  0.00  0.00    -0.034 A 
ATOM      8  C   UNL     1       8.193   6.159 -22.675  0.00  0.00    +0.094 C 
ATOM      9  C   UNL     1       8.066   5.044 -23.225  0.00  0.00    +0.096 C 
ATOM     10  C   UNL     1       6.918   4.522 -23.316  0.00  0.00    -0.007 C 
ATOM     11  C   UNL     1       6.786   3.393 -23.871  0.00  0.00    +0.009 C 
ATOM     12  C   UNL     1       5.656   2.864 -23.968  0.00  0.00    +0.045 C 
ATOM     13  N   UNL     1       8.024   3.774 -23.866  0.00  0.00    +0.239 N 
ATOM     14  H   UNL     1       8.875   3.338 -24.218  0.00  0.00    +0.204 HD
ATOM     15  C   UNL     1       9.062   3.229 -24.303  0.00  0.00    +0.191 C 
ATOM     16  C   UNL     1       6.761   3.157 -23.988  0.00  0.00    +0.133 C 
ATOM     17  C   UNL     1       5.649   3.851 -23.464  0.00  0.00    +0.071 C 
ATOM     18  C   UNL     1       6.043   6.228 -22.312  0.00  0.00    +0.016 A 
ATOM     19  C   UNL     1       4.637   3.452 -23.513  0.00  0.00    +0.144 C 
ATOM     20  C   UNL     1       5.911   5.112 -22.861  0.00  0.00    +0.080 C 
ENDROOT
BRANCH   4  21
ATOM     21  O   UNL     1       4.152   8.548 -20.840  0.00  0.00    -0.491 OA
ATOM     22  C   UNL     1       4.185   9.786 -20.662  0.00  0.00    +0.277 C 
ENDBRANCH   4  21
BRANCH  19  23
ATOM     23  O   UNL     1       3.522   2.711 -23.720  0.00  0.00    -0.495 OA
ATOM     24  C   UNL     1       3.603   1.593 -24.356  0.00  0.00    +0.276 C 
ENDBRANCH  19  23
BRANCH   1  25
ATOM     25  C   UNL     1       3.431   4.313 -22.889  0.00  0.00    +0.167 C 
BRANCH  25  26
ATOM     26  O   UNL     1       3.004   3.499 -22.046  0.00  0.00    -0.387 OA
ATOM     27  H   UNL     1       3.614   2.748 -21.983  0.00  0.00    +0.210 HD
ENDBRANCH  25  26
BRANCH  25  28
ATOM     28  C   UNL     1       2.603   4.876 -23.659  0.00  0.00    +0.036 C 
BRANCH  28  29
ATOM     29  C   UNL     1       1.360   4.864 -23.444  0.00  0.00    +0.002 C 
BRANCH  29  31
ATOM     30  C   UNL     1       1.042   4.111 -25.496  0.00  0.00    +0.004 C 
ATOM     31  C   UNL     1       0.585   4.464 -24.380  0.00  0.00    -0.003 C 
ENDBRANCH  29  31
ENDBRANCH  28  29
ENDBRANCH  25  28
ENDBRANCH   1  25
TORSDOF 7
ENDMDL
MODEL 8
REMARK VINA RESULT:    -7.334      4.853      7.530
REMARK INTER + INTRA:          -1.738
REMARK INTER:                  -9.757
REMARK INTRA:                   8.019
REMARK UNBOUND:                 8.382
REMARK  Name = CCCC[C@@H](O)[C@]12Oc3c(OC)ccc4c3[C@@]13CCN(C)[C@@H](C4)C3=CC=C2OC   ZINC000253505583
REMARK  11 active torsions:
REMARK  status: ('A' for Active; 'I' for Inactive)
REMARK    1  A    between atoms: C_1  and  C_2
REMARK    2  A    between atoms: C_2  and  C_3
REMARK    3  A    between atoms: C_3  and  C_4
REMARK    4  A    between atoms: C_4  and  C_5
REMARK    5  A    between atoms: C_5  and  O_6
REMARK    6  A    between atoms: C_5  and  C_7
REMARK    7  A    between atoms: C_10  and  O_11
REMARK    8  A    between atoms: O_11  and  C_12
REMARK    9  A    between atoms: N_20  and  C_21
REMARK   10  A    between atoms: C_27  and  O_28
REMARK   11  A    between atoms: O_28  and  C_29
REMARK                            x       y       z     vdW  Elec       q    Type
REMARK                         _______ _______ _______ _____ _____    ______ ____
ROOT
ATOM      1  C   UNL     1       5.321   3.981 -23.149  0.00  0.00    +0.206 C 
ATOM      2  O   UNL     1       4.637   2.796 -23.791  0.00  0.00    -0.470 OA
ATOM      3  C   UNL     1       3.180   3.013 -24.063  0.00  0.00    +0.168 A 
ATOM      4  C   UNL     1       2.104   2.527 -24.523  0.00  0.00    +0.162 A 
ATOM      5  C   UNL     1       1.044   3.218 -24.508  0.00  0.00    +0.050 A 
ATOM      6  C   UNL     1       1.058   4.380 -24.040  0.00  0.00    +0.008 A 
ATOM      7  C   UNL     1       2.119   4.861 -23.586  0.00  0.00    -0.034 A 
ATOM      8  C   UNL     1       2.136   6.040 -23.110  0.00  0.00    +0.094 C 
ATOM      9  C   UNL     1       3.196   6.523 -22.655  0.00  0.00    +0.096 C 
ATOM     10  C   UNL     1       4.253   5.829 -22.672  0.00  0.00    -0.007 C 
ATOM     11  C   UNL     1       5.327   6.315 -22.214  0.00  0.00    +0.009 C 
ATOM     12  C   UNL     1       6.381   5.641 -22.223  0.00  0.00    +0.045 C 
ATOM     13  N   UNL     1       4.349   7.159 -22.117  0.00  0.00    +0.239 N 
ATOM     14  H   UNL     1       4.299   8.108 -21.749  0.00  0.00    +0.204 HD
ATOM     15  C   UNL     1       4.300   8.324 -21.662  0.00  0.00    +0.191 C 
ATOM     16  C   UNL     1       5.550   6.419 -22.117  0.00  0.00    +0.133 C 
ATOM     17  C   UNL     1       5.505   5.113 -22.650  0.00  0.00    +0.071 C 
ATOM     18  C   UNL     1       3.183   4.188 -23.593  0.00  0.00    +0.016 A 
ATOM     19  C   UNL     1       6.382   4.469 -22.692  0.00  0.00    +0.144 C 
ATOM     20  C   UNL     1       4.246   4.668 -23.139  0.00  0.00    +0.080 C 
ENDROOT
BRANCH   4  21
ATOM     21  O   UNL     1       2.090   1.365 -24.992  0.00  0.00    -0.491 OA
ATOM     22  C   UNL     1       3.020   0.571 -24.728  0.00  0.00    +0.277 C 
ENDBRANCH   4  21
BRANCH  19  23
ATOM     23  O   UNL     1       7.617   3.919 -22.607  0.00  0.00    -0.495 OA
ATOM     24  C   UNL     1       8.650   4.678 -22.469  0.00  0.00    +0.276 C 
ENDBRANCH  19  23
BRANCH   1  25
ATOM     25  C   UNL     1       6.237   2.995 -23.317  0.00  0.00    +0.167 C 
BRANCH  25  26
ATOM     26  O   UNL     1       6.887   2.932 -24.380  0.00  0.00    -0.387 OA
ATOM     27  H   UNL     1       7.653   3.524 -24.326  0.00  0.00    +0.210 HD
ENDBRANCH  25  26
BRANCH  25  28
ATOM     28  C   UNL     1       6.454   2.131 -22.422  0.00  0.00    +0.036 C 
BRANCH  28  29
ATOM     29  C   UNL     1       5.684   1.150 -22.227  0.00  0.00    +0.002 C 
BRANCH  29  31
ATOM     30  C   UNL     1       3.986   0.508 -20.970  0.00  0.00    +0.004 C 
ATOM     31  C   UNL     1       5.117   1.041 -21.085  0.00  0.00    -0.003 C 
ENDBRANCH  29  31
ENDBRANCH  28  29
ENDBRANCH  25  28
ENDBRANCH   1  25
TORSDOF 7
ENDMDL
MODEL 9
REMARK VINA RESULT:    -7.207      2.373      4.787
REMARK INTER + INTRA:          -1.563
REMARK INTER:                  -9.945
REMARK INTRA:                   8.382
REMARK UNBOUND:                 8.382
REMARK  Name = CCCC[C@@H](O)[C@]12Oc3c(OC)ccc4c3[C@@]13CCN(C)[C@@H](C4)C3=CC=C2OC   ZINC000253505583
REMARK  11 active torsions:
REMARK  status: ('A' for Active; 'I' for Inactive)
REMARK    1  A    between atoms: C_1  and  C_2
REMARK    2  A    between atoms: C_2  and  C_3
REMARK    3  A    between atoms: C_3  and  C_4
REMARK    4  A    between atoms: C_4  and  C_5
REMARK    5  A    between atoms: C_5  and  O_6
REMARK    6  A    between atoms: C_5  and  C_7
REMARK    7  A    between atoms: C_10  and  O_11
REMARK    8  A    between atoms: O_11  and  C_12
REMARK    9  A    between atoms: N_20  and  C_21
REMARK   10  A    between atoms: C_27  and  O_28
REMARK   11  A    between atoms: O_28  and  C_29
REMARK                            x       y       z     vdW  Elec       q    Type
REMARK                         _______ _______ _______ _____ _____    ______ ____
ROOT
ATOM      1  C   UNL     1       0.868   2.395 -23.843  0.00  0.00    +0.206 C 
ATOM      2  O   UNL     1      -0.243   2.896 -24.738  0.00  0.00    -0.470 OA
ATOM      3  C   UNL     1      -1.579   2.958 -24.064  0.00  0.00    +0.168 A 
ATOM      4  C   UNL     1      -2.809   3.242 -24.175  0.00  0.00    +0.162 A 
ATOM      5  C   UNL     1      -3.582   3.092 -23.184  0.00  0.00    +0.050 A 
ATOM      6  C   UNL     1      -3.132   2.665 -22.096  0.00  0.00    +0.008 A 
ATOM      7  C   UNL     1      -1.918   2.385 -21.985  0.00  0.00    -0.034 A 
ATOM      8  C   UNL     1      -1.458   1.952 -20.881  0.00  0.00    +0.094 C 
ATOM      9  C   UNL     1      -0.245   1.671 -20.768  0.00  0.00    +0.096 C 
ATOM     10  C   UNL     1       0.523   1.822 -21.761  0.00  0.00    -0.007 C 
ATOM     11  C   UNL     1       1.751   1.540 -21.650  0.00  0.00    +0.009 C 
ATOM     12  C   UNL     1       2.524   1.684 -22.624  0.00  0.00    +0.045 C 
ATOM     13  N   UNL     1       1.116   1.326 -20.541  0.00  0.00    +0.239 N 
ATOM     14  H   UNL     1       1.424   0.983 -19.632  0.00  0.00    +0.204 HD
ATOM     15  C   UNL     1       1.506   0.904 -19.429  0.00  0.00    +0.191 C 
ATOM     16  C   UNL     1       2.008   1.480 -21.624  0.00  0.00    +0.133 C 
ATOM     17  C   UNL     1       1.473   1.962 -22.838  0.00  0.00    +0.071 C 
ATOM     18  C   UNL     1      -1.135   2.528 -22.960  0.00  0.00    +0.016 A 
ATOM     19  C   UNL     1       2.085   2.113 -23.726  0.00  0.00    +0.144 C 
ATOM     20  C   UNL     1       0.080   2.249 -22.851  0.00  0.00    +0.080 C 
ENDROOT
BRANCH   4  21
ATOM     21  O   UNL     1      -3.260   3.668 -25.264  0.00  0.00    -0.491 OA
ATOM     22  C   UNL     1      -4.229   4.459 -25.274  0.00  0.00    +0.277 C 
ENDBRANCH   4  21
BRANCH  19  23
ATOM     23  O   UNL     1       3.080   2.193 -24.641  0.00  0.00    -0.495 OA
ATOM     24  C   UNL     1       4.310   2.128 -24.260  0.00  0.00    +0.276 C 
ENDBRANCH  19  23
BRANCH   1  25
ATOM     25  C   UNL     1       1.389   2.667 -25.065  0.00  0.00    +0.167 C 
BRANCH  25  26
ATOM     26  O   UNL     1       1.612   1.734 -25.863  0.00  0.00    -0.387 OA
ATOM     27  H   UNL     1       0.837   1.152 -25.905  0.00  0.00    +0.210 HD
ENDBRANCH  25  26
BRANCH  25  28
ATOM     28  C   UNL     1       1.659   3.847 -25.424  0.00  0.00    +0.036 C 
BRANCH  28  29
ATOM     29  C   UNL     1       1.448   4.846 -24.682  0.00  0.00    +0.002 C 
BRANCH  29  31
ATOM     30  C   UNL     1       2.298   5.695 -22.828  0.00  0.00    +0.004 C 
ATOM     31  C   UNL     1       2.432   5.332 -24.023  0.00  0.00    -0.003 C 
ENDBRANCH  29  31
ENDBRANCH  28  29
ENDBRANCH  25  28
ENDBRANCH   1  25
TORSDOF 7
ENDMDL
