MODEL 1
REMARK VINA RESULT:   -12.108      0.000      0.000
REMARK INTER + INTRA:         -12.461
REMARK INTER:                 -12.461
REMARK INTRA:                   0.000
REMARK UNBOUND:                 0.000
REMARK  Name = C[C@]12CC[C@H]3[C@@H](CC(=O)[C@@H]4C[C@@H](O)CC[C@]34C)[C@@H]1CCC2=O ZINC000118913911
REMARK  3 active torsions:
REMARK  status: ('A' for Active; 'I' for Inactive)
REMARK    1  A    between atoms: C_1  and  C_2
REMARK    2  A    between atoms: C_12  and  O_13
REMARK    3  A    between atoms: C_16  and  C_17
REMARK                            x       y       z     vdW  Elec       q    Type
REMARK                         _______ _______ _______ _____ _____    ______ ____
ROOT
ATOM      1  C   UNL     1      -4.822   2.899 -21.601  0.00  0.00    +0.019 C 
ATOM      2  C   UNL     1      -3.972   3.157 -22.549  0.00  0.00    +0.029 C 
ATOM      3  C   UNL     1      -3.448   2.573 -21.513  0.00  0.00    +0.015 C 
ATOM      4  C   UNL     1      -2.176   2.300 -21.494  0.00  0.00    +0.005 C 
ATOM      5  C   UNL     1      -1.430   2.611 -22.512  0.00  0.00    -0.001 C 
ATOM      6  C   UNL     1      -1.954   3.195 -23.549  0.00  0.00    +0.004 C 
ATOM      7  C   UNL     1      -1.208   3.506 -24.567  0.00  0.00    +0.078 C 
ATOM      8  C   UNL     1       0.062   3.233 -24.548  0.00  0.00    +0.137 C 
ATOM      9  C   UNL     1       0.587   2.649 -23.511  0.00  0.00    +0.064 C 
ATOM     10  C   UNL     1       1.858   2.376 -23.493  0.00  0.00    +0.043 C 
ATOM     11  C   UNL     1       2.382   1.793 -22.457  0.00  0.00    +0.115 C 
ATOM     12  C   UNL     1       1.636   1.482 -21.439  0.00  0.00    +0.032 C 
ATOM     13  C   UNL     1       0.365   1.754 -21.457  0.00  0.00    +0.010 C 
ATOM     14  O   UNL     1       0.809   3.544 -25.566  0.00  0.00    -0.297 OA
ATOM     15  C   UNL     1      -0.160   2.338 -22.494  0.00  0.00    -0.019 C 
ATOM     16  C   UNL     1      -0.906   2.027 -21.476  0.00  0.00    +0.012 C 
ATOM     17  C   UNL     1      -5.188   3.531 -22.814  0.00  0.00    +0.139 C 
ATOM     18  O   UNL     1      -6.219   3.389 -22.034  0.00  0.00    -0.297 OA
ATOM     19  C   UNL     1      -5.194   4.074 -23.996  0.00  0.00    +0.075 C 
ATOM     20  C   UNL     1      -3.981   4.034 -24.461  0.00  0.00    +0.012 C 
ATOM     21  C   UNL     1      -3.226   3.468 -23.567  0.00  0.00    +0.006 C 
ENDROOT
BRANCH  11  22
ATOM     22  O   UNL     1       3.653   1.520 -22.438  0.00  0.00    -0.392 OA
ATOM     23  H   UNL     1       4.011   1.584 -23.338  0.00  0.00    +0.210 HD
ENDBRANCH  11  22
TORSDOF 1
ENDMDL
MODEL 2
REMARK VINA RESULT:   -11.845      1.147      2.663
REMARK INTER + INTRA:         -12.191
REMARK INTER:                 -12.191
REMARK INTRA:                   0.000
REMARK UNBOUND:                 0.000
REMARK  Name = C[C@]12CC[C@H]3[C@@H](CC(=O)[C@@H]4C[C@@H](O)CC[C@]34C)[C@@H]1CCC2=O ZINC000118913911
REMARK  3 active torsions:
REMARK  status: ('A' for Active; 'I' for Inactive)
REMARK    1  A    between atoms: C_1  and  C_2
REMARK    2  A    between atoms: C_12  and  O_13
REMARK    3  A    between atoms: C_16  and  C_17
REMARK                            x       y       z     vdW  Elec       q    Type
REMARK                         _______ _______ _______ _____ _____    ______ ____
ROOT
ATOM      1  C   UNL     1      -4.518   3.791 -23.938  0.00  0.00    +0.019 C 
ATOM      2  C   UNL     1      -3.678   3.263 -23.099  0.00  0.00    +0.029 C 
ATOM      3  C   UNL     1      -3.149   3.595 -24.239  0.00  0.00    +0.015 C 
ATOM      4  C   UNL     1      -1.883   3.388 -24.453  0.00  0.00    +0.005 C 
ATOM      5  C   UNL     1      -1.147   2.849 -23.527  0.00  0.00    -0.001 C 
ATOM      6  C   UNL     1      -1.676   2.517 -22.387  0.00  0.00    +0.004 C 
ATOM      7  C   UNL     1      -0.940   1.978 -21.461  0.00  0.00    +0.078 C 
ATOM      8  C   UNL     1       0.325   1.771 -21.675  0.00  0.00    +0.137 C 
ATOM      9  C   UNL     1       0.855   2.103 -22.816  0.00  0.00    +0.064 C 
ATOM     10  C   UNL     1       2.120   1.897 -23.030  0.00  0.00    +0.043 C 
ATOM     11  C   UNL     1       2.649   2.229 -24.170  0.00  0.00    +0.115 C 
ATOM     12  C   UNL     1       1.913   2.768 -25.096  0.00  0.00    +0.032 C 
ATOM     13  C   UNL     1       0.648   2.975 -24.882  0.00  0.00    +0.010 C 
ATOM     14  O   UNL     1       1.062   1.232 -20.750  0.00  0.00    -0.297 OA
ATOM     15  C   UNL     1       0.118   2.642 -23.741  0.00  0.00    -0.019 C 
ATOM     16  C   UNL     1      -0.618   3.181 -24.667  0.00  0.00    +0.012 C 
ATOM     17  C   UNL     1      -4.891   3.360 -22.641  0.00  0.00    +0.139 C 
ATOM     18  O   UNL     1      -5.912   3.850 -23.280  0.00  0.00    -0.297 OA
ATOM     19  C   UNL     1      -4.904   2.881 -21.432  0.00  0.00    +0.075 C 
ATOM     20  C   UNL     1      -3.700   2.488 -21.143  0.00  0.00    +0.012 C 
ATOM     21  C   UNL     1      -2.942   2.724 -22.173  0.00  0.00    +0.006 C 
ENDROOT
BRANCH  11  22
ATOM     22  O   UNL     1       3.915   2.022 -24.384  0.00  0.00    -0.392 OA
ATOM     23  H   UNL     1       4.438   2.630 -23.838  0.00  0.00    +0.210 HD
ENDBRANCH  11  22
TORSDOF 1
ENDMDL
MODEL 3
REMARK VINA RESULT:   -11.600      1.159      5.520
REMARK INTER + INTRA:         -11.939
REMARK INTER:                 -11.939
REMARK INTRA:                   0.000
REMARK UNBOUND:                 0.000
REMARK  Name = C[C@]12CC[C@H]3[C@@H](CC(=O)[C@@H]4C[C@@H](O)CC[C@]34C)[C@@H]1CCC2=O ZINC000118913911
REMARK  3 active torsions:
REMARK  status: ('A' for Active; 'I' for Inactive)
REMARK    1  A    between atoms: C_1  and  C_2
REMARK    2  A    between atoms: C_12  and  O_13
REMARK    3  A    between atoms: C_16  and  C_17
REMARK                            x       y       z     vdW  Elec       q    Type
REMARK                         _______ _______ _______ _____ _____    ______ ____
ROOT
ATOM      1  C   UNL     1       1.671   2.024 -22.526  0.00  0.00    +0.019 C 
ATOM      2  C   UNL     1       0.808   2.610 -23.300  0.00  0.00    +0.029 C 
ATOM      3  C   UNL     1       0.295   2.121 -22.211  0.00  0.00    +0.015 C 
ATOM      4  C   UNL     1      -0.979   2.244 -21.981  0.00  0.00    +0.005 C 
ATOM      5  C   UNL     1      -1.739   2.856 -22.840  0.00  0.00    -0.001 C 
ATOM      6  C   UNL     1      -1.225   3.346 -23.929  0.00  0.00    +0.004 C 
ATOM      7  C   UNL     1      -1.985   3.958 -24.788  0.00  0.00    +0.078 C 
ATOM      8  C   UNL     1      -3.258   4.081 -24.558  0.00  0.00    +0.137 C 
ATOM      9  C   UNL     1      -3.772   3.591 -23.468  0.00  0.00    +0.064 C 
ATOM     10  C   UNL     1      -5.045   3.714 -23.238  0.00  0.00    +0.043 C 
ATOM     11  C   UNL     1      -5.559   3.225 -22.149  0.00  0.00    +0.115 C 
ATOM     12  C   UNL     1      -4.800   2.612 -21.290  0.00  0.00    +0.032 C 
ATOM     13  C   UNL     1      -3.526   2.489 -21.520  0.00  0.00    +0.010 C 
ATOM     14  O   UNL     1      -4.018   4.694 -25.416  0.00  0.00    -0.297 OA
ATOM     15  C   UNL     1      -3.012   2.979 -22.610  0.00  0.00    -0.019 C 
ATOM     16  C   UNL     1      -2.252   2.366 -21.751  0.00  0.00    +0.012 C 
ATOM     17  C   UNL     1       2.024   2.623 -23.760  0.00  0.00    +0.139 C 
ATOM     18  O   UNL     1       3.066   2.106 -23.178  0.00  0.00    -0.297 OA
ATOM     19  C   UNL     1       2.016   3.243 -24.902  0.00  0.00    +0.075 C 
ATOM     20  C   UNL     1       0.796   3.614 -25.149  0.00  0.00    +0.012 C 
ATOM     21  C   UNL     1       0.049   3.223 -24.159  0.00  0.00    +0.006 C 
ENDROOT
BRANCH  11  22
ATOM     22  O   UNL     1      -6.833   3.347 -21.919  0.00  0.00    -0.392 OA
ATOM     23  H   UNL     1      -7.081   2.786 -21.167  0.00  0.00    +0.210 HD
ENDBRANCH  11  22
TORSDOF 1
ENDMDL
MODEL 4
REMARK VINA RESULT:   -10.699      1.202      6.144
REMARK INTER + INTRA:         -11.012
REMARK INTER:                 -11.012
REMARK INTRA:                   0.000
REMARK UNBOUND:                 0.000
REMARK  Name = C[C@]12CC[C@H]3[C@@H](CC(=O)[C@@H]4C[C@@H](O)CC[C@]34C)[C@@H]1CCC2=O ZINC000118913911
REMARK  3 active torsions:
REMARK  status: ('A' for Active; 'I' for Inactive)
REMARK    1  A    between atoms: C_1  and  C_2
REMARK    2  A    between atoms: C_12  and  O_13
REMARK    3  A    between atoms: C_16  and  C_17
REMARK                            x       y       z     vdW  Elec       q    Type
REMARK                         _______ _______ _______ _____ _____    ______ ____
ROOT
ATOM      1  C   UNL     1       2.534   2.750 -24.374  0.00  0.00    +0.019 C 
ATOM      2  C   UNL     1       1.622   2.465 -23.494  0.00  0.00    +0.029 C 
ATOM      3  C   UNL     1       1.175   3.116 -24.527  0.00  0.00    +0.015 C 
ATOM      4  C   UNL     1      -0.086   3.422 -24.607  0.00  0.00    +0.005 C 
ATOM      5  C   UNL     1      -0.900   3.077 -23.654  0.00  0.00    -0.001 C 
ATOM      6  C   UNL     1      -0.454   2.427 -22.621  0.00  0.00    +0.004 C 
ATOM      7  C   UNL     1      -1.268   2.082 -21.668  0.00  0.00    +0.078 C 
ATOM      8  C   UNL     1      -2.529   2.388 -21.748  0.00  0.00    +0.137 C 
ATOM      9  C   UNL     1      -2.976   3.039 -22.782  0.00  0.00    +0.064 C 
ATOM     10  C   UNL     1      -4.236   3.345 -22.862  0.00  0.00    +0.043 C 
ATOM     11  C   UNL     1      -4.682   3.996 -23.895  0.00  0.00    +0.115 C 
ATOM     12  C   UNL     1      -3.868   4.340 -24.848  0.00  0.00    +0.032 C 
ATOM     13  C   UNL     1      -2.608   4.034 -24.768  0.00  0.00    +0.010 C 
ATOM     14  O   UNL     1      -3.344   2.044 -20.796  0.00  0.00    -0.297 OA
ATOM     15  C   UNL     1      -2.161   3.383 -23.735  0.00  0.00    -0.019 C 
ATOM     16  C   UNL     1      -1.346   3.728 -24.688  0.00  0.00    +0.012 C 
ATOM     17  C   UNL     1       2.811   2.046 -23.177  0.00  0.00    +0.139 C 
ATOM     18  O   UNL     1       3.891   2.203 -23.884  0.00  0.00    -0.297 OA
ATOM     19  C   UNL     1       2.731   1.443 -22.028  0.00  0.00    +0.075 C 
ATOM     20  C   UNL     1       1.493   1.489 -21.635  0.00  0.00    +0.012 C 
ATOM     21  C   UNL     1       0.807   2.121 -22.541  0.00  0.00    +0.006 C 
ENDROOT
BRANCH  11  22
ATOM     22  O   UNL     1      -5.944   4.302 -23.976  0.00  0.00    -0.392 OA
ATOM     23  H   UNL     1      -6.101   5.144 -23.521  0.00  0.00    +0.210 HD
ENDBRANCH  11  22
TORSDOF 1
ENDMDL
MODEL 5
REMARK VINA RESULT:   -10.356      1.573      5.958
REMARK INTER + INTRA:         -10.659
REMARK INTER:                 -10.659
REMARK INTRA:                   0.000
REMARK UNBOUND:                 0.000
REMARK  Name = C[C@]12CC[C@H]3[C@@H](CC(=O)[C@@H]4C[C@@H](O)CC[C@]34C)[C@@H]1CCC2=O ZINC000118913911
REMARK  3 active torsions:
REMARK  status: ('A' for Active; 'I' for Inactive)
REMARK    1  A    between atoms: C_1  and  C_2
REMARK    2  A    between atoms: C_12  and  O_13
REMARK    3  A    between atoms: C_16  and  C_17
REMARK                            x       y       z     vdW  Elec       q    Type
REMARK                         _______ _______ _______ _____ _____    ______ ____
ROOT
ATOM      1  C   UNL     1       3.530   0.738 -22.132  0.00  0.00    +0.019 C 
ATOM      2  C   UNL     1       2.961   1.821 -22.570  0.00  0.00    +0.029 C 
ATOM      3  C   UNL     1       2.151   1.006 -21.962  0.00  0.00    +0.015 C 
ATOM      4  C   UNL     1       0.893   1.311 -21.839  0.00  0.00    +0.005 C 
ATOM      5  C   UNL     1       0.446   2.432 -22.324  0.00  0.00    -0.001 C 
ATOM      6  C   UNL     1       1.256   3.246 -22.931  0.00  0.00    +0.004 C 
ATOM      7  C   UNL     1       0.809   4.367 -23.416  0.00  0.00    +0.078 C 
ATOM      8  C   UNL     1      -0.448   4.672 -23.293  0.00  0.00    +0.137 C 
ATOM      9  C   UNL     1      -1.259   3.857 -22.685  0.00  0.00    +0.064 C 
ATOM     10  C   UNL     1      -2.516   4.163 -22.562  0.00  0.00    +0.043 C 
ATOM     11  C   UNL     1      -3.326   3.348 -21.955  0.00  0.00    +0.115 C 
ATOM     12  C   UNL     1      -2.880   2.228 -21.470  0.00  0.00    +0.032 C 
ATOM     13  C   UNL     1      -1.622   1.922 -21.593  0.00  0.00    +0.010 C 
ATOM     14  O   UNL     1      -0.896   5.793 -23.778  0.00  0.00    -0.297 OA
ATOM     15  C   UNL     1      -0.811   2.737 -22.201  0.00  0.00    -0.019 C 
ATOM     16  C   UNL     1      -0.364   1.617 -21.716  0.00  0.00    +0.012 C 
ATOM     17  C   UNL     1       4.235   1.754 -22.821  0.00  0.00    +0.139 C 
ATOM     18  O   UNL     1       5.030   0.780 -22.491  0.00  0.00    -0.297 OA
ATOM     19  C   UNL     1       4.575   2.834 -23.462  0.00  0.00    +0.075 C 
ATOM     20  C   UNL     1       3.512   3.567 -23.606  0.00  0.00    +0.012 C 
ATOM     21  C   UNL     1       2.514   2.941 -23.055  0.00  0.00    +0.006 C 
ENDROOT
BRANCH  11  22
ATOM     22  O   UNL     1      -4.584   3.653 -21.831  0.00  0.00    -0.392 OA
ATOM     23  H   UNL     1      -4.665   4.553 -21.479  0.00  0.00    +0.210 HD
ENDBRANCH  11  22
TORSDOF 1
ENDMDL
MODEL 6
REMARK VINA RESULT:   -10.123      1.352      2.169
REMARK INTER + INTRA:         -10.419
REMARK INTER:                 -10.419
REMARK INTRA:                   0.000
REMARK UNBOUND:                 0.000
REMARK  Name = C[C@]12CC[C@H]3[C@@H](CC(=O)[C@@H]4C[C@@H](O)CC[C@]34C)[C@@H]1CCC2=O ZINC000118913911
REMARK  3 active torsions:
REMARK  status: ('A' for Active; 'I' for Inactive)
REMARK    1  A    between atoms: C_1  and  C_2
REMARK    2  A    between atoms: C_12  and  O_13
REMARK    3  A    between atoms: C_16  and  C_17
REMARK                            x       y       z     vdW  Elec       q    Type
REMARK                         _______ _______ _______ _____ _____    ______ ____
ROOT
ATOM      1  C   UNL     1      -2.917   2.727 -21.974  0.00  0.00    +0.019 C 
ATOM      2  C   UNL     1      -1.936   2.800 -22.823  0.00  0.00    +0.029 C 
ATOM      3  C   UNL     1      -1.599   2.311 -21.666  0.00  0.00    +0.015 C 
ATOM      4  C   UNL     1      -0.370   1.947 -21.447  0.00  0.00    +0.005 C 
ATOM      5  C   UNL     1       0.521   2.072 -22.385  0.00  0.00    -0.001 C 
ATOM      6  C   UNL     1       0.185   2.561 -23.541  0.00  0.00    +0.004 C 
ATOM      7  C   UNL     1       1.077   2.686 -24.479  0.00  0.00    +0.078 C 
ATOM      8  C   UNL     1       2.305   2.323 -24.260  0.00  0.00    +0.137 C 
ATOM      9  C   UNL     1       2.642   1.833 -23.103  0.00  0.00    +0.064 C 
ATOM     10  C   UNL     1       3.870   1.470 -22.884  0.00  0.00    +0.043 C 
ATOM     11  C   UNL     1       4.207   0.980 -21.728  0.00  0.00    +0.115 C 
ATOM     12  C   UNL     1       3.315   0.855 -20.790  0.00  0.00    +0.032 C 
ATOM     13  C   UNL     1       2.087   1.219 -21.009  0.00  0.00    +0.010 C 
ATOM     14  O   UNL     1       3.197   2.448 -25.197  0.00  0.00    -0.297 OA
ATOM     15  C   UNL     1       1.750   1.708 -22.166  0.00  0.00    -0.019 C 
ATOM     16  C   UNL     1       0.858   1.583 -21.228  0.00  0.00    +0.012 C 
ATOM     17  C   UNL     1      -3.071   3.230 -23.289  0.00  0.00    +0.139 C 
ATOM     18  O   UNL     1      -4.199   3.263 -22.643  0.00  0.00    -0.297 OA
ATOM     19  C   UNL     1      -2.881   3.620 -24.514  0.00  0.00    +0.075 C 
ATOM     20  C   UNL     1      -1.628   3.432 -24.805  0.00  0.00    +0.012 C 
ATOM     21  C   UNL     1      -1.044   2.925 -23.760  0.00  0.00    +0.006 C 
ENDROOT
BRANCH  11  22
ATOM     22  O   UNL     1       5.436   0.616 -21.508  0.00  0.00    -0.392 OA
ATOM     23  H   UNL     1       6.022   1.062 -22.139  0.00  0.00    +0.210 HD
ENDBRANCH  11  22
TORSDOF 1
ENDMDL
MODEL 7
REMARK VINA RESULT:    -9.880      2.147      6.581
REMARK INTER + INTRA:         -10.169
REMARK INTER:                 -10.169
REMARK INTRA:                   0.000
REMARK UNBOUND:                 0.000
REMARK  Name = C[C@]12CC[C@H]3[C@@H](CC(=O)[C@@H]4C[C@@H](O)CC[C@]34C)[C@@H]1CCC2=O ZINC000118913911
REMARK  3 active torsions:
REMARK  status: ('A' for Active; 'I' for Inactive)
REMARK    1  A    between atoms: C_1  and  C_2
REMARK    2  A    between atoms: C_12  and  O_13
REMARK    3  A    between atoms: C_16  and  C_17
REMARK                            x       y       z     vdW  Elec       q    Type
REMARK                         _______ _______ _______ _____ _____    ______ ____
ROOT
ATOM      1  C   UNL     1       4.488   4.414 -23.284  0.00  0.00    +0.019 C 
ATOM      2  C   UNL     1       3.657   3.539 -22.802  0.00  0.00    +0.029 C 
ATOM      3  C   UNL     1       3.087   4.499 -23.468  0.00  0.00    +0.015 C 
ATOM      4  C   UNL     1       1.793   4.519 -23.601  0.00  0.00    +0.005 C 
ATOM      5  C   UNL     1       1.071   3.579 -23.068  0.00  0.00    -0.001 C 
ATOM      6  C   UNL     1       1.641   2.619 -22.402  0.00  0.00    +0.004 C 
ATOM      7  C   UNL     1       0.919   1.679 -21.869  0.00  0.00    +0.078 C 
ATOM      8  C   UNL     1      -0.374   1.699 -22.001  0.00  0.00    +0.137 C 
ATOM      9  C   UNL     1      -0.945   2.659 -22.667  0.00  0.00    +0.064 C 
ATOM     10  C   UNL     1      -2.238   2.679 -22.800  0.00  0.00    +0.043 C 
ATOM     11  C   UNL     1      -2.808   3.639 -23.465  0.00  0.00    +0.115 C 
ATOM     12  C   UNL     1      -2.085   4.579 -23.998  0.00  0.00    +0.032 C 
ATOM     13  C   UNL     1      -0.793   4.559 -23.866  0.00  0.00    +0.010 C 
ATOM     14  O   UNL     1      -1.097   0.759 -21.469  0.00  0.00    -0.297 OA
ATOM     15  C   UNL     1      -0.222   3.599 -23.200  0.00  0.00    -0.019 C 
ATOM     16  C   UNL     1       0.501   4.539 -23.733  0.00  0.00    +0.012 C 
ATOM     17  C   UNL     1       4.903   3.291 -22.529  0.00  0.00    +0.139 C 
ATOM     18  O   UNL     1       5.924   4.010 -22.893  0.00  0.00    -0.297 OA
ATOM     19  C   UNL     1       4.951   2.198 -21.827  0.00  0.00    +0.075 C 
ATOM     20  C   UNL     1       3.735   1.770 -21.666  0.00  0.00    +0.012 C 
ATOM     21  C   UNL     1       2.934   2.599 -22.269  0.00  0.00    +0.006 C 
ENDROOT
BRANCH  11  22
ATOM     22  O   UNL     1      -4.101   3.659 -23.598  0.00  0.00    -0.392 OA
ATOM     23  H   UNL     1      -4.328   3.806 -24.530  0.00  0.00    +0.210 HD
ENDBRANCH  11  22
TORSDOF 1
ENDMDL
MODEL 8
REMARK VINA RESULT:    -9.620      1.859      6.111
REMARK INTER + INTRA:          -9.901
REMARK INTER:                  -9.901
REMARK INTRA:                   0.000
REMARK UNBOUND:                 0.000
REMARK  Name = C[C@]12CC[C@H]3[C@@H](CC(=O)[C@@H]4C[C@@H](O)CC[C@]34C)[C@@H]1CCC2=O ZINC000118913911
REMARK  3 active torsions:
REMARK  status: ('A' for Active; 'I' for Inactive)
REMARK    1  A    between atoms: C_1  and  C_2
REMARK    2  A    between atoms: C_12  and  O_13
REMARK    3  A    between atoms: C_16  and  C_17
REMARK                            x       y       z     vdW  Elec       q    Type
REMARK                         _______ _______ _______ _____ _____    ______ ____
ROOT
ATOM      1  C   UNL     1       3.347   0.729 -20.626  0.00  0.00    +0.019 C 
ATOM      2  C   UNL     1       3.262   1.401 -21.735  0.00  0.00    +0.029 C 
ATOM      3  C   UNL     1       2.114   1.151 -21.179  0.00  0.00    +0.015 C 
ATOM      4  C   UNL     1       1.016   1.567 -21.738  0.00  0.00    +0.005 C 
ATOM      5  C   UNL     1       1.068   2.233 -22.853  0.00  0.00    -0.001 C 
ATOM      6  C   UNL     1       2.216   2.482 -23.410  0.00  0.00    +0.004 C 
ATOM      7  C   UNL     1       2.267   3.148 -24.525  0.00  0.00    +0.078 C 
ATOM      8  C   UNL     1       1.170   3.564 -25.085  0.00  0.00    +0.137 C 
ATOM      9  C   UNL     1       0.021   3.314 -24.528  0.00  0.00    +0.064 C 
ATOM     10  C   UNL     1      -1.076   3.730 -25.088  0.00  0.00    +0.043 C 
ATOM     11  C   UNL     1      -2.224   3.480 -24.531  0.00  0.00    +0.115 C 
ATOM     12  C   UNL     1      -2.275   2.815 -23.416  0.00  0.00    +0.032 C 
ATOM     13  C   UNL     1      -1.178   2.399 -22.856  0.00  0.00    +0.010 C 
ATOM     14  O   UNL     1       1.220   4.229 -26.200  0.00  0.00    -0.297 OA
ATOM     15  C   UNL     1      -0.029   2.649 -23.413  0.00  0.00    -0.019 C 
ATOM     16  C   UNL     1      -0.080   1.983 -22.297  0.00  0.00    +0.012 C 
ATOM     17  C   UNL     1       4.480   1.104 -21.389  0.00  0.00    +0.139 C 
ATOM     18  O   UNL     1       4.833   0.441 -20.327  0.00  0.00    -0.297 OA
ATOM     19  C   UNL     1       5.283   1.586 -22.290  0.00  0.00    +0.075 C 
ATOM     20  C   UNL     1       4.562   2.181 -23.193  0.00  0.00    +0.012 C 
ATOM     21  C   UNL     1       3.313   2.067 -22.850  0.00  0.00    +0.006 C 
ENDROOT
BRANCH  11  22
ATOM     22  O   UNL     1      -3.322   3.896 -25.091  0.00  0.00    -0.392 OA
ATOM     23  H   UNL     1      -3.677   4.645 -24.587  0.00  0.00    +0.210 HD
ENDBRANCH  11  22
TORSDOF 1
ENDMDL
