MODEL 1
REMARK VINA RESULT:   -10.174      0.000      0.000
REMARK INTER + INTRA:         -14.129
REMARK INTER:                 -13.305
REMARK INTRA:                  -0.824
REMARK UNBOUND:                -0.684
REMARK  Name = ZINC000003894278
REMARK  8 active torsions:
REMARK  status: ('A' for Active; 'I' for Inactive)
REMARK    1  A    between atoms: C_7  and  O_8
REMARK    2  A    between atoms: O_8  and  C_9
REMARK    3  A    between atoms: C_11  and  C_12
REMARK    4  A    between atoms: C_12  and  O_13
REMARK    5  A    between atoms: C_14  and  O_15
REMARK    6  A    between atoms: C_16  and  O_17
REMARK    7  A    between atoms: C_18  and  O_19
REMARK    8  A    between atoms: C_20  and  O_21
REMARK                            x       y       z     vdW  Elec       q    Type
REMARK                         _______ _______ _______ _____ _____    ______ ____
ROOT
ATOM      1  C   UNL     1       1.509   2.930 -23.937  0.00  0.00    +0.339 C 
ATOM      2  O   UNL     1       1.816   2.819 -22.679  0.00  0.00    -0.331 OA
ATOM      3  C   UNL     1       2.662   1.910 -22.294  0.00  0.00    +0.179 C 
ATOM      4  C   UNL     1       3.202   1.113 -23.167  0.00  0.00    +0.177 C 
ATOM      5  C   UNL     1       2.895   1.224 -24.426  0.00  0.00    +0.180 C 
ATOM      6  C   UNL     1       2.049   2.133 -24.811  0.00  0.00    +0.214 C 
ENDROOT
BRANCH   5   7
ATOM      7  O   UNL     1       3.435   0.427 -25.299  0.00  0.00    -0.386 OA
ATOM      8  H   UNL     1       3.286  -0.494 -25.032  0.00  0.00    +0.210 HD
ENDBRANCH   5   7
BRANCH   4   9
ATOM      9  O   UNL     1       4.048   0.204 -22.782  0.00  0.00    -0.386 OA
ATOM     10  H   UNL     1       3.902  -0.610 -23.291  0.00  0.00    +0.210 HD
ENDBRANCH   4   9
BRANCH   6  11
ATOM     11  O   UNL     1       1.742   2.244 -26.069  0.00  0.00    -0.383 OA
ATOM     12  H   UNL     1       2.417   2.776 -26.520  0.00  0.00    +0.210 HD
ENDBRANCH   6  11
BRANCH   1  13
ATOM     13  O   UNL     1       0.663   3.839 -24.322  0.00  0.00    -0.457 OA
BRANCH  13  20
ATOM     14  O   UNL     1      -6.072   3.258 -21.733  0.00  0.00    -0.245 OA
ATOM     15  C   UNL     1      -4.807   3.391 -22.004  0.00  0.00    +0.337 A 
ATOM     16  C   UNL     1      -3.956   3.608 -21.046  0.00  0.00    +0.092 A 
ATOM     17  C   UNL     1      -2.692   3.741 -21.318  0.00  0.00    +0.018 A 
ATOM     18  C   UNL     1      -2.278   3.657 -22.548  0.00  0.00    +0.021 A 
ATOM     19  C   UNL     1      -1.014   3.790 -22.820  0.00  0.00    +0.061 A 
ATOM     20  C   UNL     1      -0.602   3.706 -24.049  0.00  0.00    +0.166 A 
ATOM     21  C   UNL     1      -1.453   3.490 -25.007  0.00  0.00    +0.162 A 
ATOM     22  C   UNL     1      -2.717   3.357 -24.736  0.00  0.00    +0.096 A 
ATOM     23  C   UNL     1      -3.130   3.440 -23.506  0.00  0.00    +0.143 A 
ATOM     24  O   UNL     1      -4.394   3.308 -23.234  0.00  0.00    -0.422 OA
BRANCH  21  25
ATOM     25  O   UNL     1      -1.041   3.406 -26.237  0.00  0.00    -0.503 OA
ATOM     26  H   UNL     1      -1.024   2.575 -26.670  0.00  0.00    +0.292 HD
ENDBRANCH  21  25
ENDBRANCH  13  20
ENDBRANCH   1  13
BRANCH   3  27
ATOM     27  C   UNL     1       2.969   1.798 -21.036  0.00  0.00    +0.190 C 
BRANCH  27  28
ATOM     28  O   UNL     1       4.128   2.203 -20.610  0.00  0.00    -0.392 OA
ATOM     29  H   UNL     1       4.282   3.113 -20.908  0.00  0.00    +0.210 HD
ENDBRANCH  27  28
ENDBRANCH   3  27
TORSDOF 8
ENDMDL
MODEL 2
REMARK VINA RESULT:    -9.677      1.471      2.276
REMARK INTER + INTRA:         -13.472
REMARK INTER:                 -12.603
REMARK INTRA:                  -0.868
REMARK UNBOUND:                -0.684
REMARK  Name = ZINC000003894278
REMARK  8 active torsions:
REMARK  status: ('A' for Active; 'I' for Inactive)
REMARK    1  A    between atoms: C_7  and  O_8
REMARK    2  A    between atoms: O_8  and  C_9
REMARK    3  A    between atoms: C_11  and  C_12
REMARK    4  A    between atoms: C_12  and  O_13
REMARK    5  A    between atoms: C_14  and  O_15
REMARK    6  A    between atoms: C_16  and  O_17
REMARK    7  A    between atoms: C_18  and  O_19
REMARK    8  A    between atoms: C_20  and  O_21
REMARK                            x       y       z     vdW  Elec       q    Type
REMARK                         _______ _______ _______ _____ _____    ______ ____
ROOT
ATOM      1  C   UNL     1       1.584   4.198 -24.171  0.00  0.00    +0.339 C 
ATOM      2  O   UNL     1       1.755   2.969 -24.559  0.00  0.00    -0.331 OA
ATOM      3  C   UNL     1       2.860   2.346 -24.276  0.00  0.00    +0.179 C 
ATOM      4  C   UNL     1       3.795   2.951 -23.605  0.00  0.00    +0.177 C 
ATOM      5  C   UNL     1       3.624   4.181 -23.217  0.00  0.00    +0.180 C 
ATOM      6  C   UNL     1       2.519   4.804 -23.499  0.00  0.00    +0.214 C 
ENDROOT
BRANCH   5   7
ATOM      7  O   UNL     1       4.559   4.786 -22.546  0.00  0.00    -0.386 OA
ATOM      8  H   UNL     1       4.155   5.382 -21.896  0.00  0.00    +0.210 HD
ENDBRANCH   5   7
BRANCH   4   9
ATOM      9  O   UNL     1       4.900   2.328 -23.323  0.00  0.00    -0.386 OA
ATOM     10  H   UNL     1       5.657   2.888 -23.560  0.00  0.00    +0.210 HD
ENDBRANCH   4   9
BRANCH   6  11
ATOM     11  O   UNL     1       2.348   6.033 -23.111  0.00  0.00    -0.383 OA
ATOM     12  H   UNL     1       3.030   6.595 -23.511  0.00  0.00    +0.210 HD
ENDBRANCH   6  11
BRANCH   1  13
ATOM     13  O   UNL     1       0.479   4.821 -24.453  0.00  0.00    -0.457 OA
BRANCH  13  20
ATOM     14  O   UNL     1      -5.627   2.459 -21.367  0.00  0.00    -0.245 OA
ATOM     15  C   UNL     1      -4.486   2.959 -21.738  0.00  0.00    +0.337 A 
ATOM     16  C   UNL     1      -3.746   3.597 -20.880  0.00  0.00    +0.092 A 
ATOM     17  C   UNL     1      -2.605   4.096 -21.251  0.00  0.00    +0.018 A 
ATOM     18  C   UNL     1      -2.204   3.959 -22.481  0.00  0.00    +0.021 A 
ATOM     19  C   UNL     1      -1.063   4.459 -22.852  0.00  0.00    +0.061 A 
ATOM     20  C   UNL     1      -0.663   4.321 -24.081  0.00  0.00    +0.166 A 
ATOM     21  C   UNL     1      -1.403   3.683 -24.939  0.00  0.00    +0.162 A 
ATOM     22  C   UNL     1      -2.544   3.184 -24.567  0.00  0.00    +0.096 A 
ATOM     23  C   UNL     1      -2.944   3.321 -23.339  0.00  0.00    +0.143 A 
ATOM     24  O   UNL     1      -4.086   2.821 -22.966  0.00  0.00    -0.422 OA
BRANCH  21  25
ATOM     25  O   UNL     1      -1.003   3.546 -26.168  0.00  0.00    -0.503 OA
ATOM     26  H   UNL     1      -0.262   4.031 -26.476  0.00  0.00    +0.292 HD
ENDBRANCH  21  25
ENDBRANCH  13  20
ENDBRANCH   1  13
BRANCH   3  27
ATOM     27  C   UNL     1       3.032   1.117 -24.664  0.00  0.00    +0.190 C 
BRANCH  27  28
ATOM     28  O   UNL     1       2.776   0.137 -23.851  0.00  0.00    -0.392 OA
ATOM     29  H   UNL     1       1.849  -0.132 -23.949  0.00  0.00    +0.210 HD
ENDBRANCH  27  28
ENDBRANCH   3  27
TORSDOF 8
ENDMDL
MODEL 3
REMARK VINA RESULT:    -9.422      1.578      2.166
REMARK INTER + INTRA:         -13.134
REMARK INTER:                 -12.739
REMARK INTRA:                  -0.395
REMARK UNBOUND:                -0.684
REMARK  Name = ZINC000003894278
REMARK  8 active torsions:
REMARK  status: ('A' for Active; 'I' for Inactive)
REMARK    1  A    between atoms: C_7  and  O_8
REMARK    2  A    between atoms: O_8  and  C_9
REMARK    3  A    between atoms: C_11  and  C_12
REMARK    4  A    between atoms: C_12  and  O_13
REMARK    5  A    between atoms: C_14  and  O_15
REMARK    6  A    between atoms: C_16  and  O_17
REMARK    7  A    between atoms: C_18  and  O_19
REMARK    8  A    between atoms: C_20  and  O_21
REMARK                            x       y       z     vdW  Elec       q    Type
REMARK                         _______ _______ _______ _____ _____    ______ ____
ROOT
ATOM      1  C   UNL     1       2.181   3.181 -24.645  0.00  0.00    +0.339 C 
ATOM      2  O   UNL     1       2.794   3.360 -23.513  0.00  0.00    -0.331 OA
ATOM      3  C   UNL     1       3.557   2.424 -23.032  0.00  0.00    +0.179 C 
ATOM      4  C   UNL     1       3.707   1.309 -23.682  0.00  0.00    +0.177 C 
ATOM      5  C   UNL     1       3.094   1.129 -24.814  0.00  0.00    +0.180 C 
ATOM      6  C   UNL     1       2.331   2.065 -25.296  0.00  0.00    +0.214 C 
ENDROOT
BRANCH   5   7
ATOM      7  O   UNL     1       3.243   0.013 -25.465  0.00  0.00    -0.386 OA
ATOM      8  H   UNL     1       2.786  -0.700 -24.992  0.00  0.00    +0.210 HD
ENDBRANCH   5   7
BRANCH   4   9
ATOM      9  O   UNL     1       4.470   0.373 -23.200  0.00  0.00    -0.386 OA
ATOM     10  H   UNL     1       5.400   0.601 -23.359  0.00  0.00    +0.210 HD
ENDBRANCH   4   9
BRANCH   6  11
ATOM     11  O   UNL     1       1.717   1.885 -26.428  0.00  0.00    -0.383 OA
ATOM     12  H   UNL     1       2.038   2.533 -27.075  0.00  0.00    +0.210 HD
ENDBRANCH   6  11
BRANCH   1  13
ATOM     13  O   UNL     1       1.418   4.117 -25.126  0.00  0.00    -0.457 OA
BRANCH  13  20
ATOM     14  O   UNL     1      -5.735   3.953 -24.032  0.00  0.00    -0.245 OA
ATOM     15  C   UNL     1      -4.490   3.878 -24.398  0.00  0.00    +0.337 A 
ATOM     16  C   UNL     1      -4.172   3.263 -25.499  0.00  0.00    +0.092 A 
ATOM     17  C   UNL     1      -2.927   3.188 -25.864  0.00  0.00    +0.018 A 
ATOM     18  C   UNL     1      -2.000   3.727 -25.130  0.00  0.00    +0.021 A 
ATOM     19  C   UNL     1      -0.755   3.652 -25.495  0.00  0.00    +0.061 A 
ATOM     20  C   UNL     1       0.172   4.192 -24.761  0.00  0.00    +0.166 A 
ATOM     21  C   UNL     1      -0.146   4.806 -23.660  0.00  0.00    +0.162 A 
ATOM     22  C   UNL     1      -1.391   4.882 -23.295  0.00  0.00    +0.096 A 
ATOM     23  C   UNL     1      -2.318   4.342 -24.029  0.00  0.00    +0.143 A 
ATOM     24  O   UNL     1      -3.564   4.417 -23.664  0.00  0.00    -0.422 OA
BRANCH  21  25
ATOM     25  O   UNL     1       0.780   5.346 -22.926  0.00  0.00    -0.503 OA
ATOM     26  H   UNL     1       0.989   6.254 -23.026  0.00  0.00    +0.292 HD
ENDBRANCH  21  25
ENDBRANCH  13  20
ENDBRANCH   1  13
BRANCH   3  27
ATOM     27  C   UNL     1       4.171   2.603 -21.899  0.00  0.00    +0.190 C 
BRANCH  27  28
ATOM     28  O   UNL     1       3.631   2.186 -20.794  0.00  0.00    -0.392 OA
ATOM     29  H   UNL     1       2.767   1.787 -20.986  0.00  0.00    +0.210 HD
ENDBRANCH  27  28
ENDBRANCH   3  27
TORSDOF 8
ENDMDL
MODEL 4
REMARK VINA RESULT:    -9.055      1.277      2.205
REMARK INTER + INTRA:         -12.650
REMARK INTER:                 -12.798
REMARK INTRA:                   0.149
REMARK UNBOUND:                -0.684
REMARK  Name = ZINC000003894278
REMARK  8 active torsions:
REMARK  status: ('A' for Active; 'I' for Inactive)
REMARK    1  A    between atoms: C_7  and  O_8
REMARK    2  A    between atoms: O_8  and  C_9
REMARK    3  A    between atoms: C_11  and  C_12
REMARK    4  A    between atoms: C_12  and  O_13
REMARK    5  A    between atoms: C_14  and  O_15
REMARK    6  A    between atoms: C_16  and  O_17
REMARK    7  A    between atoms: C_18  and  O_19
REMARK    8  A    between atoms: C_20  and  O_21
REMARK                            x       y       z     vdW  Elec       q    Type
REMARK                         _______ _______ _______ _____ _____    ______ ____
ROOT
ATOM      1  C   UNL     1       1.097   3.031 -23.685  0.00  0.00    +0.339 C 
ATOM      2  O   UNL     1       1.894   2.341 -22.925  0.00  0.00    -0.331 OA
ATOM      3  C   UNL     1       2.696   1.463 -23.451  0.00  0.00    +0.179 C 
ATOM      4  C   UNL     1       2.700   1.275 -24.737  0.00  0.00    +0.177 C 
ATOM      5  C   UNL     1       1.903   1.966 -25.498  0.00  0.00    +0.180 C 
ATOM      6  C   UNL     1       1.102   2.844 -24.972  0.00  0.00    +0.214 C 
ENDROOT
BRANCH   5   7
ATOM      7  O   UNL     1       1.907   1.778 -26.784  0.00  0.00    -0.386 OA
ATOM      8  H   UNL     1       0.996   1.665 -27.098  0.00  0.00    +0.210 HD
ENDBRANCH   5   7
BRANCH   4   9
ATOM      9  O   UNL     1       3.501   0.397 -25.264  0.00  0.00    -0.386 OA
ATOM     10  H   UNL     1       4.257   0.851 -25.669  0.00  0.00    +0.210 HD
ENDBRANCH   4   9
BRANCH   6  11
ATOM     11  O   UNL     1       0.305   3.534 -25.732  0.00  0.00    -0.383 OA
ATOM     12  H   UNL     1       0.813   4.217 -26.197  0.00  0.00    +0.210 HD
ENDBRANCH   6  11
BRANCH   1  13
ATOM     13  O   UNL     1       0.296   3.909 -23.159  0.00  0.00    -0.457 OA
BRANCH  13  20
ATOM     14  O   UNL     1      -6.663   2.560 -21.695  0.00  0.00    -0.245 OA
ATOM     15  C   UNL     1      -5.484   2.922 -22.107  0.00  0.00    +0.337 A 
ATOM     16  C   UNL     1      -5.368   3.739 -23.111  0.00  0.00    +0.092 A 
ATOM     17  C   UNL     1      -4.189   4.100 -23.522  0.00  0.00    +0.018 A 
ATOM     18  C   UNL     1      -3.125   3.644 -22.929  0.00  0.00    +0.021 A 
ATOM     19  C   UNL     1      -1.947   4.005 -23.341  0.00  0.00    +0.061 A 
ATOM     20  C   UNL     1      -0.884   3.548 -22.748  0.00  0.00    +0.166 A 
ATOM     21  C   UNL     1      -1.000   2.731 -21.743  0.00  0.00    +0.162 A 
ATOM     22  C   UNL     1      -2.179   2.370 -21.332  0.00  0.00    +0.096 A 
ATOM     23  C   UNL     1      -3.241   2.826 -21.925  0.00  0.00    +0.143 A 
ATOM     24  O   UNL     1      -4.421   2.465 -21.514  0.00  0.00    -0.422 OA
BRANCH  21  25
ATOM     25  O   UNL     1       0.063   2.275 -21.150  0.00  0.00    -0.503 OA
ATOM     26  H   UNL     1       0.589   1.621 -21.569  0.00  0.00    +0.292 HD
ENDBRANCH  21  25
ENDBRANCH  13  20
ENDBRANCH   1  13
BRANCH   3  27
ATOM     27  C   UNL     1       3.493   0.772 -22.692  0.00  0.00    +0.190 C 
BRANCH  27  28
ATOM     28  O   UNL     1       3.005   0.005 -21.764  0.00  0.00    -0.392 OA
ATOM     29  H   UNL     1       2.057  -0.129 -21.920  0.00  0.00    +0.210 HD
ENDBRANCH  27  28
ENDBRANCH   3  27
TORSDOF 8
ENDMDL
MODEL 5
REMARK VINA RESULT:    -8.887      2.057      2.480
REMARK INTER + INTRA:         -12.428
REMARK INTER:                 -12.159
REMARK INTRA:                  -0.269
REMARK UNBOUND:                -0.684
REMARK  Name = ZINC000003894278
REMARK  8 active torsions:
REMARK  status: ('A' for Active; 'I' for Inactive)
REMARK    1  A    between atoms: C_7  and  O_8
REMARK    2  A    between atoms: O_8  and  C_9
REMARK    3  A    between atoms: C_11  and  C_12
REMARK    4  A    between atoms: C_12  and  O_13
REMARK    5  A    between atoms: C_14  and  O_15
REMARK    6  A    between atoms: C_16  and  O_17
REMARK    7  A    between atoms: C_18  and  O_19
REMARK    8  A    between atoms: C_20  and  O_21
REMARK                            x       y       z     vdW  Elec       q    Type
REMARK                         _______ _______ _______ _____ _____    ______ ____
ROOT
ATOM      1  C   UNL     1       2.217   2.689 -23.591  0.00  0.00    +0.339 C 
ATOM      2  O   UNL     1       1.970   3.942 -23.351  0.00  0.00    -0.331 OA
ATOM      3  C   UNL     1       2.950   4.786 -23.228  0.00  0.00    +0.179 C 
ATOM      4  C   UNL     1       4.179   4.377 -23.344  0.00  0.00    +0.177 C 
ATOM      5  C   UNL     1       4.427   3.123 -23.583  0.00  0.00    +0.180 C 
ATOM      6  C   UNL     1       3.446   2.279 -23.707  0.00  0.00    +0.214 C 
ENDROOT
BRANCH   5   7
ATOM      7  O   UNL     1       5.655   2.715 -23.699  0.00  0.00    -0.386 OA
ATOM      8  H   UNL     1       5.721   2.094 -24.442  0.00  0.00    +0.210 HD
ENDBRANCH   5   7
BRANCH   4   9
ATOM      9  O   UNL     1       5.159   5.222 -23.220  0.00  0.00    -0.386 OA
ATOM     10  H   UNL     1       4.864   5.987 -22.701  0.00  0.00    +0.210 HD
ENDBRANCH   4   9
BRANCH   6  11
ATOM     11  O   UNL     1       3.694   1.026 -23.946  0.00  0.00    -0.383 OA
ATOM     12  H   UNL     1       4.641   0.854 -23.822  0.00  0.00    +0.210 HD
ENDBRANCH   6  11
BRANCH   1  13
ATOM     13  O   UNL     1       1.237   1.844 -23.714  0.00  0.00    -0.457 OA
BRANCH  13  20
ATOM     14  O   UNL     1      -5.558   3.725 -22.074  0.00  0.00    -0.245 OA
ATOM     15  C   UNL     1      -4.329   3.313 -22.179  0.00  0.00    +0.337 A 
ATOM     16  C   UNL     1      -3.751   2.725 -21.173  0.00  0.00    +0.092 A 
ATOM     17  C   UNL     1      -2.523   2.314 -21.279  0.00  0.00    +0.018 A 
ATOM     18  C   UNL     1      -1.871   2.490 -22.391  0.00  0.00    +0.021 A 
ATOM     19  C   UNL     1      -0.643   2.079 -22.497  0.00  0.00    +0.061 A 
ATOM     20  C   UNL     1       0.008   2.256 -23.608  0.00  0.00    +0.166 A 
ATOM     21  C   UNL     1      -0.570   2.843 -24.613  0.00  0.00    +0.162 A 
ATOM     22  C   UNL     1      -1.798   3.255 -24.508  0.00  0.00    +0.096 A 
ATOM     23  C   UNL     1      -2.449   3.078 -23.396  0.00  0.00    +0.143 A 
ATOM     24  O   UNL     1      -3.678   3.490 -23.290  0.00  0.00    -0.422 OA
BRANCH  21  25
ATOM     25  O   UNL     1       0.081   3.020 -25.725  0.00  0.00    -0.503 OA
ATOM     26  H   UNL     1       0.390   3.874 -25.956  0.00  0.00    +0.292 HD
ENDBRANCH  21  25
ENDBRANCH  13  20
ENDBRANCH   1  13
BRANCH   3  27
ATOM     27  C   UNL     1       2.703   6.040 -22.988  0.00  0.00    +0.190 C 
BRANCH  27  28
ATOM     28  O   UNL     1       3.354   6.664 -22.053  0.00  0.00    -0.392 OA
ATOM     29  H   UNL     1       4.221   6.247 -21.929  0.00  0.00    +0.210 HD
ENDBRANCH  27  28
ENDBRANCH   3  27
TORSDOF 8
ENDMDL
MODEL 6
REMARK VINA RESULT:    -8.721      2.123      3.504
REMARK INTER + INTRA:         -12.209
REMARK INTER:                 -11.374
REMARK INTRA:                  -0.835
REMARK UNBOUND:                -0.684
REMARK  Name = ZINC000003894278
REMARK  8 active torsions:
REMARK  status: ('A' for Active; 'I' for Inactive)
REMARK    1  A    between atoms: C_7  and  O_8
REMARK    2  A    between atoms: O_8  and  C_9
REMARK    3  A    between atoms: C_11  and  C_12
REMARK    4  A    between atoms: C_12  and  O_13
REMARK    5  A    between atoms: C_14  and  O_15
REMARK    6  A    between atoms: C_16  and  O_17
REMARK    7  A    between atoms: C_18  and  O_19
REMARK    8  A    between atoms: C_20  and  O_21
REMARK                            x       y       z     vdW  Elec       q    Type
REMARK                         _______ _______ _______ _____ _____    ______ ____
ROOT
ATOM      1  C   UNL     1       3.759   1.682 -22.569  0.00  0.00    +0.339 C 
ATOM      2  O   UNL     1       4.287   2.797 -22.980  0.00  0.00    -0.331 OA
ATOM      3  C   UNL     1       5.253   3.346 -22.306  0.00  0.00    +0.179 C 
ATOM      4  C   UNL     1       5.692   2.782 -21.221  0.00  0.00    +0.177 C 
ATOM      5  C   UNL     1       5.164   1.667 -20.809  0.00  0.00    +0.180 C 
ATOM      6  C   UNL     1       4.198   1.117 -21.483  0.00  0.00    +0.214 C 
ENDROOT
BRANCH   5   7
ATOM      7  O   UNL     1       5.603   1.102 -19.723  0.00  0.00    -0.386 OA
ATOM      8  H   UNL     1       4.908   0.539 -19.348  0.00  0.00    +0.210 HD
ENDBRANCH   5   7
BRANCH   4   9
ATOM      9  O   UNL     1       6.658   3.331 -20.547  0.00  0.00    -0.386 OA
ATOM     10  H   UNL     1       6.422   3.357 -19.606  0.00  0.00    +0.210 HD
ENDBRANCH   4   9
BRANCH   6  11
ATOM     11  O   UNL     1       3.671   0.003 -21.071  0.00  0.00    -0.383 OA
ATOM     12  H   UNL     1       4.357  -0.549 -20.665  0.00  0.00    +0.210 HD
ENDBRANCH   6  11
BRANCH   1  13
ATOM     13  O   UNL     1       2.793   1.133 -23.243  0.00  0.00    -0.457 OA
BRANCH  13  20
ATOM     14  O   UNL     1      -3.880   3.835 -22.498  0.00  0.00    -0.245 OA
ATOM     15  C   UNL     1      -2.714   3.263 -22.450  0.00  0.00    +0.337 A 
ATOM     16  C   UNL     1      -2.388   2.535 -21.424  0.00  0.00    +0.092 A 
ATOM     17  C   UNL     1      -1.221   1.963 -21.377  0.00  0.00    +0.018 A 
ATOM     18  C   UNL     1      -0.380   2.120 -22.357  0.00  0.00    +0.021 A 
ATOM     19  C   UNL     1       0.786   1.548 -22.310  0.00  0.00    +0.061 A 
ATOM     20  C   UNL     1       1.626   1.705 -23.289  0.00  0.00    +0.166 A 
ATOM     21  C   UNL     1       1.300   2.433 -24.315  0.00  0.00    +0.162 A 
ATOM     22  C   UNL     1       0.134   3.005 -24.362  0.00  0.00    +0.096 A 
ATOM     23  C   UNL     1      -0.706   2.848 -23.383  0.00  0.00    +0.143 A 
ATOM     24  O   UNL     1      -1.874   3.420 -23.429  0.00  0.00    -0.422 OA
BRANCH  21  25
ATOM     25  O   UNL     1       2.140   2.590 -25.295  0.00  0.00    -0.503 OA
ATOM     26  H   UNL     1       2.378   1.858 -25.830  0.00  0.00    +0.292 HD
ENDBRANCH  21  25
ENDBRANCH  13  20
ENDBRANCH   1  13
BRANCH   3  27
ATOM     27  C   UNL     1       5.782   4.461 -22.717  0.00  0.00    +0.190 C 
BRANCH  27  28
ATOM     28  O   UNL     1       5.431   5.587 -22.171  0.00  0.00    -0.392 OA
ATOM     29  H   UNL     1       6.155   5.916 -21.616  0.00  0.00    +0.210 HD
ENDBRANCH  27  28
ENDBRANCH   3  27
TORSDOF 8
ENDMDL
MODEL 7
REMARK VINA RESULT:    -8.511      1.664      6.411
REMARK INTER + INTRA:         -11.931
REMARK INTER:                 -11.372
REMARK INTRA:                  -0.559
REMARK UNBOUND:                -0.684
REMARK  Name = ZINC000003894278
REMARK  8 active torsions:
REMARK  status: ('A' for Active; 'I' for Inactive)
REMARK    1  A    between atoms: C_7  and  O_8
REMARK    2  A    between atoms: O_8  and  C_9
REMARK    3  A    between atoms: C_11  and  C_12
REMARK    4  A    between atoms: C_12  and  O_13
REMARK    5  A    between atoms: C_14  and  O_15
REMARK    6  A    between atoms: C_16  and  O_17
REMARK    7  A    between atoms: C_18  and  O_19
REMARK    8  A    between atoms: C_20  and  O_21
REMARK                            x       y       z     vdW  Elec       q    Type
REMARK                         _______ _______ _______ _____ _____    ______ ____
ROOT
ATOM      1  C   UNL     1      -1.506   3.584 -24.036  0.00  0.00    +0.339 C 
ATOM      2  O   UNL     1      -1.613   3.535 -22.741  0.00  0.00    -0.331 OA
ATOM      3  C   UNL     1      -2.787   3.463 -22.188  0.00  0.00    +0.179 C 
ATOM      4  C   UNL     1      -3.855   3.440 -22.929  0.00  0.00    +0.177 C 
ATOM      5  C   UNL     1      -3.749   3.489 -24.224  0.00  0.00    +0.180 C 
ATOM      6  C   UNL     1      -2.574   3.561 -24.778  0.00  0.00    +0.214 C 
ENDROOT
BRANCH   5   7
ATOM      7  O   UNL     1      -4.816   3.466 -24.965  0.00  0.00    -0.386 OA
ATOM      8  H   UNL     1      -4.799   2.678 -25.532  0.00  0.00    +0.210 HD
ENDBRANCH   5   7
BRANCH   4   9
ATOM      9  O   UNL     1      -5.029   3.368 -22.376  0.00  0.00    -0.386 OA
ATOM     10  H   UNL     1      -5.110   4.060 -21.699  0.00  0.00    +0.210 HD
ENDBRANCH   4   9
BRANCH   6  11
ATOM     11  O   UNL     1      -2.468   3.610 -26.072  0.00  0.00    -0.383 OA
ATOM     12  H   UNL     1      -1.711   3.073 -26.354  0.00  0.00    +0.210 HD
ENDBRANCH   6  11
BRANCH   1  13
ATOM     13  O   UNL     1      -0.332   3.656 -24.589  0.00  0.00    -0.457 OA
BRANCH  13  20
ATOM     14  O   UNL     1       5.262   1.303 -20.644  0.00  0.00    -0.245 OA
ATOM     15  C   UNL     1       4.195   1.532 -21.351  0.00  0.00    +0.337 A 
ATOM     16  C   UNL     1       3.389   0.556 -21.647  0.00  0.00    +0.092 A 
ATOM     17  C   UNL     1       2.322   0.786 -22.354  0.00  0.00    +0.018 A 
ATOM     18  C   UNL     1       2.061   1.992 -22.765  0.00  0.00    +0.021 A 
ATOM     19  C   UNL     1       0.995   2.221 -23.471  0.00  0.00    +0.061 A 
ATOM     20  C   UNL     1       0.735   3.426 -23.882  0.00  0.00    +0.166 A 
ATOM     21  C   UNL     1       1.541   4.402 -23.586  0.00  0.00    +0.162 A 
ATOM     22  C   UNL     1       2.607   4.173 -22.879  0.00  0.00    +0.096 A 
ATOM     23  C   UNL     1       2.867   2.968 -22.469  0.00  0.00    +0.143 A 
ATOM     24  O   UNL     1       3.934   2.738 -21.762  0.00  0.00    -0.422 OA
BRANCH  21  25
ATOM     25  O   UNL     1       1.281   5.608 -23.997  0.00  0.00    -0.503 OA
ATOM     26  H   UNL     1       0.912   6.235 -23.405  0.00  0.00    +0.292 HD
ENDBRANCH  21  25
ENDBRANCH  13  20
ENDBRANCH   1  13
BRANCH   3  27
ATOM     27  C   UNL     1      -2.894   3.414 -20.893  0.00  0.00    +0.190 C 
BRANCH  27  28
ATOM     28  O   UNL     1      -3.323   4.450 -20.237  0.00  0.00    -0.392 OA
ATOM     29  H   UNL     1      -3.114   5.257 -20.733  0.00  0.00    +0.210 HD
ENDBRANCH  27  28
ENDBRANCH   3  27
TORSDOF 8
ENDMDL
MODEL 8
REMARK VINA RESULT:    -8.473      2.233      6.441
REMARK INTER + INTRA:         -11.881
REMARK INTER:                 -11.198
REMARK INTRA:                  -0.684
REMARK UNBOUND:                -0.684
REMARK  Name = ZINC000003894278
REMARK  8 active torsions:
REMARK  status: ('A' for Active; 'I' for Inactive)
REMARK    1  A    between atoms: C_7  and  O_8
REMARK    2  A    between atoms: O_8  and  C_9
REMARK    3  A    between atoms: C_11  and  C_12
REMARK    4  A    between atoms: C_12  and  O_13
REMARK    5  A    between atoms: C_14  and  O_15
REMARK    6  A    between atoms: C_16  and  O_17
REMARK    7  A    between atoms: C_18  and  O_19
REMARK    8  A    between atoms: C_20  and  O_21
REMARK                            x       y       z     vdW  Elec       q    Type
REMARK                         _______ _______ _______ _____ _____    ______ ____
ROOT
ATOM      1  C   UNL     1      -1.363   2.272 -23.252  0.00  0.00    +0.339 C 
ATOM      2  O   UNL     1      -1.664   2.360 -21.991  0.00  0.00    -0.331 OA
ATOM      3  C   UNL     1      -2.795   2.888 -21.627  0.00  0.00    +0.179 C 
ATOM      4  C   UNL     1      -3.626   3.327 -22.525  0.00  0.00    +0.177 C 
ATOM      5  C   UNL     1      -3.325   3.239 -23.788  0.00  0.00    +0.180 C 
ATOM      6  C   UNL     1      -2.194   2.712 -24.151  0.00  0.00    +0.214 C 
ENDROOT
BRANCH   5   7
ATOM      7  O   UNL     1      -4.156   3.679 -24.686  0.00  0.00    -0.386 OA
ATOM      8  H   UNL     1      -4.339   4.618 -24.525  0.00  0.00    +0.210 HD
ENDBRANCH   5   7
BRANCH   4   9
ATOM      9  O   UNL     1      -4.757   3.855 -22.162  0.00  0.00    -0.386 OA
ATOM     10  H   UNL     1      -5.468   3.517 -22.730  0.00  0.00    +0.210 HD
ENDBRANCH   4   9
BRANCH   6  11
ATOM     11  O   UNL     1      -1.893   2.624 -25.412  0.00  0.00    -0.383 OA
ATOM     12  H   UNL     1      -1.034   3.045 -25.570  0.00  0.00    +0.210 HD
ENDBRANCH   6  11
BRANCH   1  13
ATOM     13  O   UNL     1      -0.232   1.745 -23.615  0.00  0.00    -0.457 OA
BRANCH  13  20
ATOM     14  O   UNL     1       5.447   6.026 -22.271  0.00  0.00    -0.245 OA
ATOM     15  C   UNL     1       4.329   5.429 -22.559  0.00  0.00    +0.337 A 
ATOM     16  C   UNL     1       3.299   6.125 -22.943  0.00  0.00    +0.092 A 
ATOM     17  C   UNL     1       2.182   5.528 -23.231  0.00  0.00    +0.018 A 
ATOM     18  C   UNL     1       2.093   4.234 -23.135  0.00  0.00    +0.021 A 
ATOM     19  C   UNL     1       0.975   3.636 -23.423  0.00  0.00    +0.061 A 
ATOM     20  C   UNL     1       0.886   2.343 -23.327  0.00  0.00    +0.166 A 
ATOM     21  C   UNL     1       1.915   1.647 -22.944  0.00  0.00    +0.162 A 
ATOM     22  C   UNL     1       3.033   2.245 -22.656  0.00  0.00    +0.096 A 
ATOM     23  C   UNL     1       3.122   3.538 -22.752  0.00  0.00    +0.143 A 
ATOM     24  O   UNL     1       4.240   4.136 -22.464  0.00  0.00    -0.422 OA
BRANCH  21  25
ATOM     25  O   UNL     1       1.827   0.354 -22.848  0.00  0.00    -0.503 OA
ATOM     26  H   UNL     1       1.172  -0.031 -22.299  0.00  0.00    +0.292 HD
ENDBRANCH  21  25
ENDBRANCH  13  20
ENDBRANCH   1  13
BRANCH   3  27
ATOM     27  C   UNL     1      -3.097   2.976 -20.366  0.00  0.00    +0.190 C 
BRANCH  27  28
ATOM     28  O   UNL     1      -3.196   4.142 -19.801  0.00  0.00    -0.392 OA
ATOM     29  H   UNL     1      -2.360   4.361 -19.361  0.00  0.00    +0.210 HD
ENDBRANCH  27  28
ENDBRANCH   3  27
TORSDOF 8
ENDMDL
MODEL 9
REMARK VINA RESULT:    -8.375      2.215      6.915
REMARK INTER + INTRA:         -11.751
REMARK INTER:                 -11.373
REMARK INTRA:                  -0.377
REMARK UNBOUND:                -0.684
REMARK  Name = ZINC000003894278
REMARK  8 active torsions:
REMARK  status: ('A' for Active; 'I' for Inactive)
REMARK    1  A    between atoms: C_7  and  O_8
REMARK    2  A    between atoms: O_8  and  C_9
REMARK    3  A    between atoms: C_11  and  C_12
REMARK    4  A    between atoms: C_12  and  O_13
REMARK    5  A    between atoms: C_14  and  O_15
REMARK    6  A    between atoms: C_16  and  O_17
REMARK    7  A    between atoms: C_18  and  O_19
REMARK    8  A    between atoms: C_20  and  O_21
REMARK                            x       y       z     vdW  Elec       q    Type
REMARK                         _______ _______ _______ _____ _____    ______ ____
ROOT
ATOM      1  C   UNL     1      -2.474   2.635 -23.603  0.00  0.00    +0.339 C 
ATOM      2  O   UNL     1      -2.219   2.854 -24.858  0.00  0.00    -0.331 OA
ATOM      3  C   UNL     1      -3.078   3.493 -25.595  0.00  0.00    +0.179 C 
ATOM      4  C   UNL     1      -4.193   3.915 -25.075  0.00  0.00    +0.177 C 
ATOM      5  C   UNL     1      -4.449   3.697 -23.819  0.00  0.00    +0.180 C 
ATOM      6  C   UNL     1      -3.589   3.057 -23.083  0.00  0.00    +0.214 C 
ENDROOT
BRANCH   5   7
ATOM      7  O   UNL     1      -5.563   4.118 -23.300  0.00  0.00    -0.386 OA
ATOM      8  H   UNL     1      -6.218   4.251 -24.004  0.00  0.00    +0.210 HD
ENDBRANCH   5   7
BRANCH   4   9
ATOM      9  O   UNL     1      -5.052   4.555 -25.812  0.00  0.00    -0.386 OA
ATOM     10  H   UNL     1      -5.474   5.252 -25.284  0.00  0.00    +0.210 HD
ENDBRANCH   4   9
BRANCH   6  11
ATOM     11  O   UNL     1      -3.844   2.839 -21.827  0.00  0.00    -0.383 OA
ATOM     12  H   UNL     1      -4.489   3.491 -21.510  0.00  0.00    +0.210 HD
ENDBRANCH   6  11
BRANCH   1  13
ATOM     13  O   UNL     1      -1.615   1.996 -22.866  0.00  0.00    -0.457 OA
BRANCH  13  20
ATOM     14  O   UNL     1       4.820   5.309 -22.803  0.00  0.00    -0.245 OA
ATOM     15  C   UNL     1       3.591   4.893 -22.879  0.00  0.00    +0.337 A 
ATOM     16  C   UNL     1       2.653   5.703 -23.270  0.00  0.00    +0.092 A 
ATOM     17  C   UNL     1       1.424   5.286 -23.346  0.00  0.00    +0.018 A 
ATOM     18  C   UNL     1       1.133   4.058 -23.030  0.00  0.00    +0.021 A 
ATOM     19  C   UNL     1      -0.095   3.641 -23.106  0.00  0.00    +0.061 A 
ATOM     20  C   UNL     1      -0.385   2.414 -22.791  0.00  0.00    +0.166 A 
ATOM     21  C   UNL     1       0.553   1.604 -22.400  0.00  0.00    +0.162 A 
ATOM     22  C   UNL     1       1.782   2.021 -22.324  0.00  0.00    +0.096 A 
ATOM     23  C   UNL     1       2.072   3.248 -22.640  0.00  0.00    +0.143 A 
ATOM     24  O   UNL     1       3.301   3.666 -22.564  0.00  0.00    -0.422 OA
BRANCH  21  25
ATOM     25  O   UNL     1       0.263   0.376 -22.085  0.00  0.00    -0.503 OA
ATOM     26  H   UNL     1      -0.454  -0.058 -22.504  0.00  0.00    +0.292 HD
ENDBRANCH  21  25
ENDBRANCH  13  20
ENDBRANCH   1  13
BRANCH   3  27
ATOM     27  C   UNL     1      -2.824   3.712 -26.851  0.00  0.00    +0.190 C 
BRANCH  27  28
ATOM     28  O   UNL     1      -3.659   3.313 -27.762  0.00  0.00    -0.392 OA
ATOM     29  H   UNL     1      -4.261   4.040 -27.990  0.00  0.00    +0.210 HD
ENDBRANCH  27  28
ENDBRANCH   3  27
TORSDOF 8
ENDMDL
