MODEL 1
REMARK VINA RESULT:    -8.366      0.000      0.000
REMARK INTER + INTRA:         -11.279
REMARK INTER:                 -10.390
REMARK INTRA:                  -0.889
REMARK UNBOUND:                -0.957
REMARK  Name = CC(C)=CC[C@@H](O)[C@@]1(C)[C@H]2CC[C@@H](C2)[C@@]1(C)O               ZINC000100393349
REMARK  9 active torsions:
REMARK  status: ('A' for Active; 'I' for Inactive)
REMARK    1  A    between atoms: C_1  and  C_2
REMARK    2  A    between atoms: C_2  and  C_3
REMARK    3  A    between atoms: C_4  and  C_5
REMARK    4  A    between atoms: C_5  and  C_6
REMARK    5  A    between atoms: C_6  and  O_7
REMARK    6  A    between atoms: C_6  and  C_8
REMARK    7  A    between atoms: C_8  and  C_9
REMARK    8  A    between atoms: C_15  and  C_16
REMARK    9  A    between atoms: C_15  and  O_17
REMARK                            x       y       z     vdW  Elec       q    Type
REMARK                         _______ _______ _______ _____ _____    ______ ____
ROOT
ATOM      1  C   UNL     1      -1.079   4.373 -23.750  0.00  0.00    +0.026 C 
ATOM      2  C   UNL     1       0.235   4.529 -23.605  0.00  0.00    +0.000 C 
ATOM      3  C   UNL     1       1.558   4.598 -23.647  0.00  0.00    +0.004 C 
ATOM      4  C   UNL     1       1.549   3.853 -25.231  0.00  0.00    +0.006 C 
ATOM      5  C   UNL     1       0.225   3.784 -25.190  0.00  0.00    +0.021 C 
ATOM      6  C   UNL     1       0.481   4.170 -24.406  0.00  0.00    +0.010 C 
ATOM      7  C   UNL     1      -1.217   4.927 -22.550  0.00  0.00    +0.017 C 
ATOM      8  C   UNL     1      -1.085   3.802 -24.965  0.00  0.00    +0.074 C 
ATOM      9  C   UNL     1      -2.216   3.747 -24.921  0.00  0.00    +0.042 C 
ENDROOT
BRANCH   8  10
ATOM     10  O   UNL     1      -1.216   3.232 -26.158  0.00  0.00    -0.388 OA
ATOM     11  H   UNL     1      -0.708   3.736 -26.815  0.00  0.00    +0.210 HD
ENDBRANCH   8  10
BRANCH   1  12
ATOM     12  C   UNL     1      -2.486   4.263 -23.783  0.00  0.00    +0.127 C 
BRANCH  12  13
ATOM     13  O   UNL     1      -3.175   4.812 -24.756  0.00  0.00    -0.391 OA
ATOM     14  H   UNL     1      -4.064   4.425 -24.781  0.00  0.00    +0.210 HD
ENDBRANCH  12  13
BRANCH  12  15
ATOM     15  C   UNL     1      -3.121   3.588 -22.804  0.00  0.00    +0.059 C 
BRANCH  15  18
ATOM     16  C   UNL     1      -6.324   2.708 -21.707  0.00  0.00    +0.038 C 
ATOM     17  C   UNL     1      -5.007   2.833 -21.739  0.00  0.00    -0.080 C 
ATOM     18  C   UNL     1      -4.424   3.462 -22.769  0.00  0.00    -0.026 C 
ATOM     19  C   UNL     1      -4.269   2.331 -20.745  0.00  0.00    +0.038 C 
ENDBRANCH  15  18
ENDBRANCH  12  15
ENDBRANCH   1  12
TORSDOF 5
ENDMDL
MODEL 2
REMARK VINA RESULT:    -8.362      1.554      5.345
REMARK INTER + INTRA:         -11.274
REMARK INTER:                 -10.295
REMARK INTRA:                  -0.980
REMARK UNBOUND:                -0.957
REMARK  Name = CC(C)=CC[C@@H](O)[C@@]1(C)[C@H]2CC[C@@H](C2)[C@@]1(C)O               ZINC000100393349
REMARK  9 active torsions:
REMARK  status: ('A' for Active; 'I' for Inactive)
REMARK    1  A    between atoms: C_1  and  C_2
REMARK    2  A    between atoms: C_2  and  C_3
REMARK    3  A    between atoms: C_4  and  C_5
REMARK    4  A    between atoms: C_5  and  C_6
REMARK    5  A    between atoms: C_6  and  O_7
REMARK    6  A    between atoms: C_6  and  C_8
REMARK    7  A    between atoms: C_8  and  C_9
REMARK    8  A    between atoms: C_15  and  C_16
REMARK    9  A    between atoms: C_15  and  O_17
REMARK                            x       y       z     vdW  Elec       q    Type
REMARK                         _______ _______ _______ _____ _____    ______ ____
ROOT
ATOM      1  C   UNL     1      -3.102   3.241 -23.341  0.00  0.00    +0.026 C 
ATOM      2  C   UNL     1      -4.380   3.377 -22.995  0.00  0.00    +0.000 C 
ATOM      3  C   UNL     1      -5.598   3.423 -22.472  0.00  0.00    +0.004 C 
ATOM      4  C   UNL     1      -5.005   2.649 -21.018  0.00  0.00    +0.006 C 
ATOM      5  C   UNL     1      -3.787   2.603 -21.539  0.00  0.00    +0.021 C 
ATOM      6  C   UNL     1      -4.315   2.999 -22.167  0.00  0.00    +0.010 C 
ATOM      7  C   UNL     1      -3.415   3.820 -24.495  0.00  0.00    +0.017 C 
ATOM      8  C   UNL     1      -2.649   2.647 -22.225  0.00  0.00    +0.074 C 
ATOM      9  C   UNL     1      -1.611   2.613 -22.678  0.00  0.00    +0.042 C 
ENDROOT
BRANCH   8  10
ATOM     10  O   UNL     1      -2.087   2.058 -21.175  0.00  0.00    -0.388 OA
ATOM     11  H   UNL     1      -1.876   1.136 -21.395  0.00  0.00    +0.210 HD
ENDBRANCH   8  10
BRANCH   1  12
ATOM     12  C   UNL     1      -1.778   3.154 -23.824  0.00  0.00    +0.127 C 
BRANCH  12  13
ATOM     13  O   UNL     1      -1.207   1.985 -23.999  0.00  0.00    -0.391 OA
ATOM     14  H   UNL     1      -0.941   1.891 -24.926  0.00  0.00    +0.210 HD
ENDBRANCH  12  13
BRANCH  12  15
ATOM     15  C   UNL     1      -1.101   4.285 -24.107  0.00  0.00    +0.059 C 
BRANCH  15  18
ATOM     16  C   UNL     1       2.279   4.921 -23.472  0.00  0.00    +0.038 C 
ATOM     17  C   UNL     1       1.174   4.579 -24.113  0.00  0.00    -0.080 C 
ATOM     18  C   UNL     1      -0.005   4.623 -23.476  0.00  0.00    -0.026 C 
ATOM     19  C   UNL     1       1.240   4.191 -25.389  0.00  0.00    +0.038 C 
ENDBRANCH  15  18
ENDBRANCH  12  15
ENDBRANCH   1  12
TORSDOF 5
ENDMDL
MODEL 3
REMARK VINA RESULT:    -8.088      1.733      2.296
REMARK INTER + INTRA:         -10.936
REMARK INTER:                  -9.981
REMARK INTRA:                  -0.955
REMARK UNBOUND:                -0.957
REMARK  Name = CC(C)=CC[C@@H](O)[C@@]1(C)[C@H]2CC[C@@H](C2)[C@@]1(C)O               ZINC000100393349
REMARK  9 active torsions:
REMARK  status: ('A' for Active; 'I' for Inactive)
REMARK    1  A    between atoms: C_1  and  C_2
REMARK    2  A    between atoms: C_2  and  C_3
REMARK    3  A    between atoms: C_4  and  C_5
REMARK    4  A    between atoms: C_5  and  C_6
REMARK    5  A    between atoms: C_6  and  O_7
REMARK    6  A    between atoms: C_6  and  C_8
REMARK    7  A    between atoms: C_8  and  C_9
REMARK    8  A    between atoms: C_15  and  C_16
REMARK    9  A    between atoms: C_15  and  O_17
REMARK                            x       y       z     vdW  Elec       q    Type
REMARK                         _______ _______ _______ _____ _____    ______ ____
ROOT
ATOM      1  C   UNL     1       0.208   3.907 -23.424  0.00  0.00    +0.026 C 
ATOM      2  C   UNL     1       1.296   4.673 -23.370  0.00  0.00    +0.000 C 
ATOM      3  C   UNL     1       2.482   5.260 -23.283  0.00  0.00    +0.004 C 
ATOM      4  C   UNL     1       3.234   3.703 -23.011  0.00  0.00    +0.006 C 
ATOM      5  C   UNL     1       2.049   3.115 -23.098  0.00  0.00    +0.021 C 
ATOM      6  C   UNL     1       1.898   4.005 -23.217  0.00  0.00    +0.010 C 
ATOM      7  C   UNL     1      -0.489   5.017 -23.639  0.00  0.00    +0.017 C 
ATOM      8  C   UNL     1       0.787   2.714 -23.216  0.00  0.00    +0.074 C 
ATOM      9  C   UNL     1      -0.230   2.220 -23.292  0.00  0.00    +0.042 C 
ENDROOT
BRANCH   8  10
ATOM     10  O   UNL     1       1.245   1.482 -23.018  0.00  0.00    -0.388 OA
ATOM     11  H   UNL     1       0.498   0.864 -22.962  0.00  0.00    +0.210 HD
ENDBRANCH   8  10
BRANCH   1  12
ATOM     12  C   UNL     1      -1.015   3.207 -23.504  0.00  0.00    +0.127 C 
BRANCH  12  13
ATOM     13  O   UNL     1      -1.121   2.133 -24.251  0.00  0.00    -0.391 OA
ATOM     14  H   UNL     1      -0.316   1.599 -24.166  0.00  0.00    +0.210 HD
ENDBRANCH  12  13
BRANCH  12  15
ATOM     15  C   UNL     1      -2.079   3.649 -22.803  0.00  0.00    +0.059 C 
BRANCH  15  18
ATOM     16  C   UNL     1      -4.581   2.097 -20.917  0.00  0.00    +0.038 C 
ATOM     17  C   UNL     1      -3.566   2.884 -21.235  0.00  0.00    -0.080 C 
ATOM     18  C   UNL     1      -3.082   2.872 -22.485  0.00  0.00    -0.026 C 
ATOM     19  C   UNL     1      -3.032   3.685 -20.309  0.00  0.00    +0.038 C 
ENDBRANCH  15  18
ENDBRANCH  12  15
ENDBRANCH   1  12
TORSDOF 5
ENDMDL
MODEL 4
REMARK VINA RESULT:    -7.983      1.385      5.146
REMARK INTER + INTRA:         -10.807
REMARK INTER:                  -9.816
REMARK INTRA:                  -0.990
REMARK UNBOUND:                -0.957
REMARK  Name = CC(C)=CC[C@@H](O)[C@@]1(C)[C@H]2CC[C@@H](C2)[C@@]1(C)O               ZINC000100393349
REMARK  9 active torsions:
REMARK  status: ('A' for Active; 'I' for Inactive)
REMARK    1  A    between atoms: C_1  and  C_2
REMARK    2  A    between atoms: C_2  and  C_3
REMARK    3  A    between atoms: C_4  and  C_5
REMARK    4  A    between atoms: C_5  and  C_6
REMARK    5  A    between atoms: C_6  and  O_7
REMARK    6  A    between atoms: C_6  and  C_8
REMARK    7  A    between atoms: C_8  and  C_9
REMARK    8  A    between atoms: C_15  and  C_16
REMARK    9  A    between atoms: C_15  and  O_17
REMARK                            x       y       z     vdW  Elec       q    Type
REMARK                         _______ _______ _______ _____ _____    ______ ____
ROOT
ATOM      1  C   UNL     1      -2.565   2.795 -22.480  0.00  0.00    +0.026 C 
ATOM      2  C   UNL     1      -3.594   2.615 -21.656  0.00  0.00    +0.000 C 
ATOM      3  C   UNL     1      -4.731   2.536 -20.976  0.00  0.00    +0.004 C 
ATOM      4  C   UNL     1      -5.557   3.400 -22.254  0.00  0.00    +0.006 C 
ATOM      5  C   UNL     1      -4.422   3.480 -22.934  0.00  0.00    +0.021 C 
ATOM      6  C   UNL     1      -4.224   3.032 -22.166  0.00  0.00    +0.010 C 
ATOM      7  C   UNL     1      -1.817   2.152 -21.591  0.00  0.00    +0.017 C 
ATOM      8  C   UNL     1      -3.201   3.458 -23.460  0.00  0.00    +0.074 C 
ATOM      9  C   UNL     1      -2.226   3.521 -24.034  0.00  0.00    +0.042 C 
ENDROOT
BRANCH   8  10
ATOM     10  O   UNL     1      -3.720   4.119 -24.489  0.00  0.00    -0.388 OA
ATOM     11  H   UNL     1      -4.027   3.487 -25.159  0.00  0.00    +0.210 HD
ENDBRANCH   8  10
BRANCH   1  12
ATOM     12  C   UNL     1      -1.399   2.922 -23.266  0.00  0.00    +0.127 C 
BRANCH  12  13
ATOM     13  O   UNL     1      -1.335   2.376 -24.458  0.00  0.00    -0.391 OA
ATOM     14  H   UNL     1      -2.205   2.426 -24.883  0.00  0.00    +0.210 HD
ENDBRANCH  12  13
BRANCH  12  15
ATOM     15  C   UNL     1      -0.346   3.610 -22.781  0.00  0.00    +0.059 C 
BRANCH  15  18
ATOM     16  C   UNL     1       2.918   3.489 -24.034  0.00  0.00    +0.038 C 
ATOM     17  C   UNL     1       1.853   3.212 -23.298  0.00  0.00    -0.080 C 
ATOM     18  C   UNL     1       0.710   3.880 -23.506  0.00  0.00    -0.026 C 
ATOM     19  C   UNL     1       1.925   2.269 -22.355  0.00  0.00    +0.038 C 
ENDBRANCH  15  18
ENDBRANCH  12  15
ENDBRANCH   1  12
TORSDOF 5
ENDMDL
MODEL 5
REMARK VINA RESULT:    -7.886      2.028      2.553
REMARK INTER + INTRA:         -10.686
REMARK INTER:                  -9.723
REMARK INTRA:                  -0.963
REMARK UNBOUND:                -0.957
REMARK  Name = CC(C)=CC[C@@H](O)[C@@]1(C)[C@H]2CC[C@@H](C2)[C@@]1(C)O               ZINC000100393349
REMARK  9 active torsions:
REMARK  status: ('A' for Active; 'I' for Inactive)
REMARK    1  A    between atoms: C_1  and  C_2
REMARK    2  A    between atoms: C_2  and  C_3
REMARK    3  A    between atoms: C_4  and  C_5
REMARK    4  A    between atoms: C_5  and  C_6
REMARK    5  A    between atoms: C_6  and  O_7
REMARK    6  A    between atoms: C_6  and  C_8
REMARK    7  A    between atoms: C_8  and  C_9
REMARK    8  A    between atoms: C_15  and  C_16
REMARK    9  A    between atoms: C_15  and  O_17
REMARK                            x       y       z     vdW  Elec       q    Type
REMARK                         _______ _______ _______ _____ _____    ______ ____
ROOT
ATOM      1  C   UNL     1       0.698   2.469 -22.815  0.00  0.00    +0.026 C 
ATOM      2  C   UNL     1       1.976   2.466 -22.440  0.00  0.00    +0.000 C 
ATOM      3  C   UNL     1       3.271   2.621 -22.200  0.00  0.00    +0.004 C 
ATOM      4  C   UNL     1       3.329   3.938 -23.351  0.00  0.00    +0.006 C 
ATOM      5  C   UNL     1       2.035   3.785 -23.592  0.00  0.00    +0.021 C 
ATOM      6  C   UNL     1       2.251   3.155 -22.971  0.00  0.00    +0.010 C 
ATOM      7  C   UNL     1       0.512   1.458 -21.973  0.00  0.00    +0.017 C 
ATOM      8  C   UNL     1       0.745   3.480 -23.697  0.00  0.00    +0.074 C 
ATOM      9  C   UNL     1      -0.362   3.341 -23.896  0.00  0.00    +0.042 C 
ENDROOT
BRANCH   8  10
ATOM     10  O   UNL     1       0.668   4.461 -24.590  0.00  0.00    -0.388 OA
ATOM     11  H   UNL     1       0.625   5.315 -24.129  0.00  0.00    +0.210 HD
ENDBRANCH   8  10
BRANCH   1  12
ATOM     12  C   UNL     1      -0.675   2.370 -23.127  0.00  0.00    +0.127 C 
BRANCH  12  13
ATOM     13  O   UNL     1      -1.062   2.054 -24.341  0.00  0.00    -0.391 OA
ATOM     14  H   UNL     1      -0.624   2.636 -24.981  0.00  0.00    +0.210 HD
ENDBRANCH  12  13
BRANCH  12  15
ATOM     15  C   UNL     1      -1.591   2.603 -22.166  0.00  0.00    +0.059 C 
BRANCH  15  18
ATOM     16  C   UNL     1      -4.979   3.401 -21.823  0.00  0.00    +0.038 C 
ATOM     17  C   UNL     1      -3.686   3.314 -21.559  0.00  0.00    -0.080 C 
ATOM     18  C   UNL     1      -2.871   2.691 -22.423  0.00  0.00    -0.026 C 
ATOM     19  C   UNL     1      -3.201   3.846 -20.434  0.00  0.00    +0.038 C 
ENDBRANCH  15  18
ENDBRANCH  12  15
ENDBRANCH   1  12
TORSDOF 5
ENDMDL
MODEL 6
REMARK VINA RESULT:    -7.715      2.100      2.949
REMARK INTER + INTRA:         -10.475
REMARK INTER:                  -9.511
REMARK INTRA:                  -0.965
REMARK UNBOUND:                -0.957
REMARK  Name = CC(C)=CC[C@@H](O)[C@@]1(C)[C@H]2CC[C@@H](C2)[C@@]1(C)O               ZINC000100393349
REMARK  9 active torsions:
REMARK  status: ('A' for Active; 'I' for Inactive)
REMARK    1  A    between atoms: C_1  and  C_2
REMARK    2  A    between atoms: C_2  and  C_3
REMARK    3  A    between atoms: C_4  and  C_5
REMARK    4  A    between atoms: C_5  and  C_6
REMARK    5  A    between atoms: C_6  and  O_7
REMARK    6  A    between atoms: C_6  and  C_8
REMARK    7  A    between atoms: C_8  and  C_9
REMARK    8  A    between atoms: C_15  and  C_16
REMARK    9  A    between atoms: C_15  and  O_17
REMARK                            x       y       z     vdW  Elec       q    Type
REMARK                         _______ _______ _______ _____ _____    ______ ____
ROOT
ATOM      1  C   UNL     1       0.501   3.403 -23.467  0.00  0.00    +0.026 C 
ATOM      2  C   UNL     1       1.774   3.770 -23.334  0.00  0.00    +0.000 C 
ATOM      3  C   UNL     1       3.064   3.961 -23.094  0.00  0.00    +0.004 C 
ATOM      4  C   UNL     1       3.123   2.456 -22.203  0.00  0.00    +0.006 C 
ATOM      5  C   UNL     1       1.833   2.263 -22.443  0.00  0.00    +0.021 C 
ATOM      6  C   UNL     1       2.049   3.053 -22.843  0.00  0.00    +0.010 C 
ATOM      7  C   UNL     1       0.315   4.517 -24.166  0.00  0.00    +0.017 C 
ATOM      8  C   UNL     1       0.549   2.248 -22.784  0.00  0.00    +0.074 C 
ATOM      9  C   UNL     1      -0.554   2.092 -22.994  0.00  0.00    +0.042 C 
ENDROOT
BRANCH   8  10
ATOM     10  O   UNL     1       0.473   1.092 -22.133  0.00  0.00    -0.388 OA
ATOM     11  H   UNL     1       0.481   1.258 -21.176  0.00  0.00    +0.210 HD
ENDBRANCH   8  10
BRANCH   1  12
ATOM     12  C   UNL     1      -0.867   3.125 -23.679  0.00  0.00    +0.127 C 
BRANCH  12  13
ATOM     13  O   UNL     1      -1.243   1.975 -24.187  0.00  0.00    -0.391 OA
ATOM     14  H   UNL     1      -0.640   1.277 -23.888  0.00  0.00    +0.210 HD
ENDBRANCH  12  13
BRANCH  12  15
ATOM     15  C   UNL     1      -1.789   4.053 -23.354  0.00  0.00    +0.059 C 
BRANCH  15  18
ATOM     16  C   UNL     1      -5.260   3.739 -23.647  0.00  0.00    +0.038 C 
ATOM     17  C   UNL     1      -4.008   4.055 -23.935  0.00  0.00    -0.080 C 
ATOM     18  C   UNL     1      -3.029   3.743 -23.074  0.00  0.00    -0.026 C 
ATOM     19  C   UNL     1      -3.728   4.682 -25.080  0.00  0.00    +0.038 C 
ENDBRANCH  15  18
ENDBRANCH  12  15
ENDBRANCH   1  12
TORSDOF 5
ENDMDL
MODEL 7
REMARK VINA RESULT:    -7.567      2.143      4.342
REMARK INTER + INTRA:         -10.293
REMARK INTER:                  -9.314
REMARK INTRA:                  -0.979
REMARK UNBOUND:                -0.957
REMARK  Name = CC(C)=CC[C@@H](O)[C@@]1(C)[C@H]2CC[C@@H](C2)[C@@]1(C)O               ZINC000100393349
REMARK  9 active torsions:
REMARK  status: ('A' for Active; 'I' for Inactive)
REMARK    1  A    between atoms: C_1  and  C_2
REMARK    2  A    between atoms: C_2  and  C_3
REMARK    3  A    between atoms: C_4  and  C_5
REMARK    4  A    between atoms: C_5  and  C_6
REMARK    5  A    between atoms: C_6  and  O_7
REMARK    6  A    between atoms: C_6  and  C_8
REMARK    7  A    between atoms: C_8  and  C_9
REMARK    8  A    between atoms: C_15  and  C_16
REMARK    9  A    between atoms: C_15  and  O_17
REMARK                            x       y       z     vdW  Elec       q    Type
REMARK                         _______ _______ _______ _____ _____    ______ ____
ROOT
ATOM      1  C   UNL     1      -2.169   3.891 -23.758  0.00  0.00    +0.026 C 
ATOM      2  C   UNL     1      -3.494   3.843 -23.884  0.00  0.00    +0.000 C 
ATOM      3  C   UNL     1      -4.776   3.753 -24.209  0.00  0.00    +0.004 C 
ATOM      4  C   UNL     1      -4.334   3.413 -25.868  0.00  0.00    +0.006 C 
ATOM      5  C   UNL     1      -3.051   3.502 -25.545  0.00  0.00    +0.021 C 
ATOM      6  C   UNL     1      -3.516   3.656 -24.776  0.00  0.00    +0.010 C 
ATOM      7  C   UNL     1      -2.362   4.157 -22.471  0.00  0.00    +0.017 C 
ATOM      8  C   UNL     1      -1.832   3.630 -25.031  0.00  0.00    +0.074 C 
ATOM      9  C   UNL     1      -0.739   3.709 -24.745  0.00  0.00    +0.042 C 
ENDROOT
BRANCH   8  10
ATOM     10  O   UNL     1      -1.378   3.382 -26.255  0.00  0.00    -0.388 OA
ATOM     11  H   UNL     1      -0.526   2.920 -26.197  0.00  0.00    +0.210 HD
ENDBRANCH   8  10
BRANCH   1  12
ATOM     12  C   UNL     1      -0.784   3.970 -23.494  0.00  0.00    +0.127 C 
BRANCH  12  13
ATOM     13  O   UNL     1      -0.036   4.849 -24.119  0.00  0.00    -0.391 OA
ATOM     14  H   UNL     1      -0.598   5.432 -24.651  0.00  0.00    +0.210 HD
ENDBRANCH  12  13
BRANCH  12  15
ATOM     15  C   UNL     1      -0.233   3.132 -22.594  0.00  0.00    +0.059 C 
BRANCH  15  18
ATOM     16  C   UNL     1       2.323   0.770 -22.245  0.00  0.00    +0.038 C 
ATOM     17  C   UNL     1       1.283   1.534 -21.954  0.00  0.00    -0.080 C 
ATOM     18  C   UNL     1       0.797   2.375 -22.878  0.00  0.00    -0.026 C 
ATOM     19  C   UNL     1       0.724   1.461 -20.743  0.00  0.00    +0.038 C 
ENDBRANCH  15  18
ENDBRANCH  12  15
ENDBRANCH   1  12
TORSDOF 5
ENDMDL
MODEL 8
REMARK VINA RESULT:    -7.295      2.423      5.613
REMARK INTER + INTRA:          -9.957
REMARK INTER:                  -9.000
REMARK INTRA:                  -0.957
REMARK UNBOUND:                -0.957
REMARK  Name = CC(C)=CC[C@@H](O)[C@@]1(C)[C@H]2CC[C@@H](C2)[C@@]1(C)O               ZINC000100393349
REMARK  9 active torsions:
REMARK  status: ('A' for Active; 'I' for Inactive)
REMARK    1  A    between atoms: C_1  and  C_2
REMARK    2  A    between atoms: C_2  and  C_3
REMARK    3  A    between atoms: C_4  and  C_5
REMARK    4  A    between atoms: C_5  and  C_6
REMARK    5  A    between atoms: C_6  and  O_7
REMARK    6  A    between atoms: C_6  and  C_8
REMARK    7  A    between atoms: C_8  and  C_9
REMARK    8  A    between atoms: C_15  and  C_16
REMARK    9  A    between atoms: C_15  and  O_17
REMARK                            x       y       z     vdW  Elec       q    Type
REMARK                         _______ _______ _______ _____ _____    ______ ____
ROOT
ATOM      1  C   UNL     1      -0.856   2.535 -22.201  0.00  0.00    +0.026 C 
ATOM      2  C   UNL     1      -1.879   2.513 -21.348  0.00  0.00    +0.000 C 
ATOM      3  C   UNL     1      -2.935   2.682 -20.564  0.00  0.00    +0.004 C 
ATOM      4  C   UNL     1      -3.151   4.298 -21.201  0.00  0.00    +0.006 C 
ATOM      5  C   UNL     1      -2.095   4.130 -21.986  0.00  0.00    +0.021 C 
ATOM      6  C   UNL     1      -2.187   3.354 -21.518  0.00  0.00    +0.010 C 
ATOM      7  C   UNL     1      -0.578   1.298 -21.806  0.00  0.00    +0.017 C 
ATOM      8  C   UNL     1      -1.024   3.775 -22.688  0.00  0.00    +0.074 C 
ATOM      9  C   UNL     1      -0.120   3.622 -23.355  0.00  0.00    +0.042 C 
ENDROOT
BRANCH   8  10
ATOM     10  O   UNL     1      -1.088   4.981 -23.243  0.00  0.00    -0.388 OA
ATOM     11  H   UNL     1      -0.248   5.179 -23.687  0.00  0.00    +0.210 HD
ENDBRANCH   8  10
BRANCH   1  12
ATOM     12  C   UNL     1       0.255   2.435 -23.065  0.00  0.00    +0.127 C 
BRANCH  12  13
ATOM     13  O   UNL     1       0.083   2.248 -24.353  0.00  0.00    -0.391 OA
ATOM     14  H   UNL     1       0.874   1.830 -24.727  0.00  0.00    +0.210 HD
ENDBRANCH  12  13
BRANCH  12  15
ATOM     15  C   UNL     1       1.500   2.533 -22.558  0.00  0.00    +0.059 C 
BRANCH  15  18
ATOM     16  C   UNL     1       4.806   3.074 -23.564  0.00  0.00    +0.038 C 
ATOM     17  C   UNL     1       3.771   2.697 -22.830  0.00  0.00    -0.080 C 
ATOM     18  C   UNL     1       2.526   2.904 -23.280  0.00  0.00    -0.026 C 
ATOM     19  C   UNL     1       3.976   2.112 -21.647  0.00  0.00    +0.038 C 
ENDBRANCH  15  18
ENDBRANCH  12  15
ENDBRANCH   1  12
TORSDOF 5
ENDMDL
MODEL 9
REMARK VINA RESULT:    -7.165      1.915      5.233
REMARK INTER + INTRA:          -9.797
REMARK INTER:                  -8.840
REMARK INTRA:                  -0.957
REMARK UNBOUND:                -0.957
REMARK  Name = CC(C)=CC[C@@H](O)[C@@]1(C)[C@H]2CC[C@@H](C2)[C@@]1(C)O               ZINC000100393349
REMARK  9 active torsions:
REMARK  status: ('A' for Active; 'I' for Inactive)
REMARK    1  A    between atoms: C_1  and  C_2
REMARK    2  A    between atoms: C_2  and  C_3
REMARK    3  A    between atoms: C_4  and  C_5
REMARK    4  A    between atoms: C_5  and  C_6
REMARK    5  A    between atoms: C_6  and  O_7
REMARK    6  A    between atoms: C_6  and  C_8
REMARK    7  A    between atoms: C_8  and  C_9
REMARK    8  A    between atoms: C_15  and  C_16
REMARK    9  A    between atoms: C_15  and  O_17
REMARK                            x       y       z     vdW  Elec       q    Type
REMARK                         _______ _______ _______ _____ _____    ______ ____
ROOT
ATOM      1  C   UNL     1      -1.647   3.867 -24.252  0.00  0.00    +0.026 C 
ATOM      2  C   UNL     1      -2.744   3.676 -24.982  0.00  0.00    +0.000 C 
ATOM      3  C   UNL     1      -3.939   3.503 -25.529  0.00  0.00    +0.004 C 
ATOM      4  C   UNL     1      -4.687   3.668 -23.956  0.00  0.00    +0.006 C 
ATOM      5  C   UNL     1      -3.492   3.841 -23.406  0.00  0.00    +0.021 C 
ATOM      6  C   UNL     1      -3.345   3.726 -24.298  0.00  0.00    +0.010 C 
ATOM      7  C   UNL     1      -0.952   3.761 -25.380  0.00  0.00    +0.017 C 
ATOM      8  C   UNL     1      -2.222   3.993 -23.046  0.00  0.00    +0.074 C 
ATOM      9  C   UNL     1      -1.197   4.140 -22.586  0.00  0.00    +0.042 C 
ENDROOT
BRANCH   8  10
ATOM     10  O   UNL     1      -2.675   4.134 -21.805  0.00  0.00    -0.388 OA
ATOM     11  H   UNL     1      -3.641   4.027 -21.798  0.00  0.00    +0.210 HD
ENDBRANCH   8  10
BRANCH   1  12
ATOM     12  C   UNL     1      -0.413   4.059 -23.592  0.00  0.00    +0.127 C 
BRANCH  12  13
ATOM     13  O   UNL     1      -0.094   5.235 -23.105  0.00  0.00    -0.391 OA
ATOM     14  H   UNL     1      -0.747   5.497 -22.438  0.00  0.00    +0.210 HD
ENDBRANCH  12  13
BRANCH  12  15
ATOM     15  C   UNL     1       0.438   3.021 -23.464  0.00  0.00    +0.059 C 
BRANCH  15  18
ATOM     16  C   UNL     1       3.923   2.859 -23.708  0.00  0.00    +0.038 C 
ATOM     17  C   UNL     1       2.643   2.692 -24.000  0.00  0.00    -0.080 C 
ATOM     18  C   UNL     1       1.705   3.184 -23.179  0.00  0.00    -0.026 C 
ATOM     19  C   UNL     1       2.297   2.036 -25.110  0.00  0.00    +0.038 C 
ENDBRANCH  15  18
ENDBRANCH  12  15
ENDBRANCH   1  12
TORSDOF 5
ENDMDL
