MODEL 1
REMARK VINA RESULT:    -7.775      0.000      0.000
REMARK INTER + INTRA:         -17.358
REMARK INTER:                 -14.175
REMARK INTRA:                  -3.184
REMARK UNBOUND:                -2.538
REMARK  Name = ZINC000085340904
REMARK  17 active torsions:
REMARK  status: ('A' for Active; 'I' for Inactive)
REMARK    1  A    between atoms: C_1  and  C_2
REMARK    2  A    between atoms: C_2  and  C_3
REMARK    3  A    between atoms: C_3  and  C_4
REMARK    4  A    between atoms: C_4  and  C_5
REMARK    5  A    between atoms: C_5  and  C_6
REMARK    6  A    between atoms: C_6  and  C_7
REMARK    7  A    between atoms: C_7  and  C_8
REMARK    8  A    between atoms: C_8  and  C_9
REMARK    9  A    between atoms: C_9  and  C_10
REMARK   10  A    between atoms: C_10  and  C_11
REMARK   11  A    between atoms: C_11  and  C_12
REMARK   12  A    between atoms: C_12  and  C_13
REMARK   13  A    between atoms: C_13  and  C_14
REMARK   14  A    between atoms: C_14  and  C_15
REMARK   15  A    between atoms: C_15  and  C_16
REMARK   16  A    between atoms: C_19  and  O_20
REMARK   17  A    between atoms: C_22  and  C_23
REMARK                            x       y       z     vdW  Elec       q    Type
REMARK                         _______ _______ _______ _____ _____    ______ ____
ROOT
ATOM      1  C   UNL     1      -1.231   1.819 -21.624  0.00  0.00    +0.000 C 
ENDROOT
BRANCH   1   2
ATOM      2  C   UNL     1      -1.611   2.838 -20.913  0.00  0.00    +0.000 C 
BRANCH   2   3
ATOM      3  C   UNL     1      -2.848   3.235 -20.955  0.00  0.00    +0.000 C 
BRANCH   3   4
ATOM      4  C   UNL     1      -3.799   2.376 -21.179  0.00  0.00    +0.000 C 
BRANCH   4   5
ATOM      5  C   UNL     1      -4.908   2.764 -21.735  0.00  0.00    -0.000 C 
BRANCH   5   6
ATOM      6  C   UNL     1      -4.923   3.829 -22.480  0.00  0.00    -0.000 C 
BRANCH   6   7
ATOM      7  C   UNL     1      -5.477   3.792 -23.655  0.00  0.00    -0.000 C 
BRANCH   7   8
ATOM      8  C   UNL     1      -4.812   4.190 -24.700  0.00  0.00    -0.000 C 
BRANCH   8   9
ATOM      9  C   UNL     1      -4.282   3.317 -25.505  0.00  0.00    -0.000 C 
BRANCH   9  10
ATOM     10  C   UNL     1      -3.024   3.403 -25.818  0.00  0.00    -0.000 C 
BRANCH  10  11
ATOM     11  C   UNL     1      -2.112   3.160 -24.923  0.00  0.00    -0.000 C 
BRANCH  11  13
ATOM     12  C   UNL     1      -1.146   4.855 -23.800  0.00  0.00    +0.004 C 
ATOM     13  C   UNL     1      -1.120   3.985 -24.765  0.00  0.00    -0.003 C 
ENDBRANCH  11  13
ENDBRANCH  10  11
ENDBRANCH   9  10
ENDBRANCH   8   9
ENDBRANCH   7   8
ENDBRANCH   6   7
ENDBRANCH   5   6
ENDBRANCH   4   5
ENDBRANCH   3   4
ENDBRANCH   2   3
ENDBRANCH   1   2
BRANCH   1  14
ATOM     14  C   UNL     1       0.020   1.465 -21.637  0.00  0.00    +0.005 C 
BRANCH  14  15
ATOM     15  C   UNL     1       0.785   1.818 -22.627  0.00  0.00    +0.036 C 
BRANCH  15  16
ATOM     16  C   UNL     1       2.057   1.553 -22.592  0.00  0.00    -0.038 A 
ATOM     17  C   UNL     1       2.533   0.768 -21.670  0.00  0.00    +0.008 A 
ATOM     18  C   UNL     1       3.805   0.504 -21.636  0.00  0.00    +0.046 A 
ATOM     19  C   UNL     1       4.602   1.023 -22.521  0.00  0.00    +0.117 A 
ATOM     20  C   UNL     1       4.126   1.808 -23.443  0.00  0.00    +0.055 A 
ATOM     21  C   UNL     1       2.855   2.073 -23.479  0.00  0.00    +0.004 A 
BRANCH  21  22
ATOM     22  C   UNL     1       2.379   2.857 -24.400  0.00  0.00    +0.072 C 
ATOM     23  O   UNL     1       2.360   4.142 -24.212  0.00  0.00    -0.545 OA
ATOM     24  O   UNL     1       1.924   2.354 -25.510  0.00  0.00    -0.545 OA
ENDBRANCH  21  22
BRANCH  19  25
ATOM     25  O   UNL     1       5.874   0.758 -22.486  0.00  0.00    -0.507 OA
ATOM     26  H   UNL     1       6.388   1.023 -21.748  0.00  0.00    +0.292 HD
ENDBRANCH  19  25
ENDBRANCH  15  16
ENDBRANCH  14  15
ENDBRANCH   1  14
TORSDOF 16
ENDMDL
MODEL 2
REMARK VINA RESULT:    -7.728      3.130      7.057
REMARK INTER + INTRA:         -17.268
REMARK INTER:                 -13.909
REMARK INTRA:                  -3.359
REMARK UNBOUND:                -2.538
REMARK  Name = ZINC000085340904
REMARK  17 active torsions:
REMARK  status: ('A' for Active; 'I' for Inactive)
REMARK    1  A    between atoms: C_1  and  C_2
REMARK    2  A    between atoms: C_2  and  C_3
REMARK    3  A    between atoms: C_3  and  C_4
REMARK    4  A    between atoms: C_4  and  C_5
REMARK    5  A    between atoms: C_5  and  C_6
REMARK    6  A    between atoms: C_6  and  C_7
REMARK    7  A    between atoms: C_7  and  C_8
REMARK    8  A    between atoms: C_8  and  C_9
REMARK    9  A    between atoms: C_9  and  C_10
REMARK   10  A    between atoms: C_10  and  C_11
REMARK   11  A    between atoms: C_11  and  C_12
REMARK   12  A    between atoms: C_12  and  C_13
REMARK   13  A    between atoms: C_13  and  C_14
REMARK   14  A    between atoms: C_14  and  C_15
REMARK   15  A    between atoms: C_15  and  C_16
REMARK   16  A    between atoms: C_19  and  O_20
REMARK   17  A    between atoms: C_22  and  C_23
REMARK                            x       y       z     vdW  Elec       q    Type
REMARK                         _______ _______ _______ _____ _____    ______ ____
ROOT
ATOM      1  C   UNL     1      -0.292   1.702 -21.308  0.00  0.00    +0.000 C 
ENDROOT
BRANCH   1   2
ATOM      2  C   UNL     1       0.585   1.279 -22.168  0.00  0.00    +0.000 C 
BRANCH   2   3
ATOM      3  C   UNL     1       1.852   1.330 -21.882  0.00  0.00    +0.000 C 
BRANCH   3   4
ATOM      4  C   UNL     1       2.718   0.742 -22.654  0.00  0.00    +0.000 C 
BRANCH   4   5
ATOM      5  C   UNL     1       3.937   1.187 -22.722  0.00  0.00    -0.000 C 
BRANCH   5   6
ATOM      6  C   UNL     1       4.199   2.416 -22.390  0.00  0.00    -0.000 C 
BRANCH   6   7
ATOM      7  C   UNL     1       4.637   3.251 -23.286  0.00  0.00    -0.000 C 
BRANCH   7   8
ATOM      8  C   UNL     1       4.180   4.468 -23.318  0.00  0.00    -0.000 C 
BRANCH   8   9
ATOM      9  C   UNL     1       2.988   4.727 -22.869  0.00  0.00    -0.000 C 
BRANCH   9  10
ATOM     10  C   UNL     1       2.082   5.205 -23.670  0.00  0.00    -0.000 C 
BRANCH  10  11
ATOM     11  C   UNL     1       1.055   4.478 -23.999  0.00  0.00    -0.000 C 
BRANCH  11  13
ATOM     12  C   UNL     1       1.461   2.828 -25.475  0.00  0.00    +0.004 C 
ATOM     13  C   UNL     1       0.959   3.995 -25.202  0.00  0.00    -0.003 C 
ENDBRANCH  11  13
ENDBRANCH  10  11
ENDBRANCH   9  10
ENDBRANCH   8   9
ENDBRANCH   7   8
ENDBRANCH   6   7
ENDBRANCH   5   6
ENDBRANCH   4   5
ENDBRANCH   3   4
ENDBRANCH   2   3
ENDBRANCH   1   2
BRANCH   1  14
ATOM     14  C   UNL     1      -1.143   2.626 -21.648  0.00  0.00    +0.005 C 
BRANCH  14  15
ATOM     15  C   UNL     1      -2.363   2.303 -21.957  0.00  0.00    +0.036 C 
BRANCH  15  16
ATOM     16  C   UNL     1      -2.917   2.802 -23.021  0.00  0.00    -0.038 A 
ATOM     17  C   UNL     1      -2.285   2.773 -24.158  0.00  0.00    +0.008 A 
ATOM     18  C   UNL     1      -2.840   3.272 -25.222  0.00  0.00    +0.046 A 
ATOM     19  C   UNL     1      -4.025   3.800 -25.152  0.00  0.00    +0.117 A 
ATOM     20  C   UNL     1      -4.657   3.829 -24.015  0.00  0.00    +0.055 A 
ATOM     21  C   UNL     1      -4.104   3.331 -22.951  0.00  0.00    +0.004 A 
BRANCH  21  22
ATOM     22  C   UNL     1      -4.735   3.360 -21.815  0.00  0.00    +0.072 C 
ATOM     23  O   UNL     1      -4.333   4.155 -20.869  0.00  0.00    -0.545 OA
ATOM     24  O   UNL     1      -5.769   2.594 -21.626  0.00  0.00    -0.545 OA
ENDBRANCH  21  22
BRANCH  19  25
ATOM     25  O   UNL     1      -4.579   4.299 -26.217  0.00  0.00    -0.507 OA
ATOM     26  H   UNL     1      -4.592   3.805 -27.013  0.00  0.00    +0.292 HD
ENDBRANCH  19  25
ENDBRANCH  15  16
ENDBRANCH  14  15
ENDBRANCH   1  14
TORSDOF 16
ENDMDL
MODEL 3
REMARK VINA RESULT:    -7.713      1.630      3.398
REMARK INTER + INTRA:         -17.239
REMARK INTER:                 -14.388
REMARK INTRA:                  -2.852
REMARK UNBOUND:                -2.538
REMARK  Name = ZINC000085340904
REMARK  17 active torsions:
REMARK  status: ('A' for Active; 'I' for Inactive)
REMARK    1  A    between atoms: C_1  and  C_2
REMARK    2  A    between atoms: C_2  and  C_3
REMARK    3  A    between atoms: C_3  and  C_4
REMARK    4  A    between atoms: C_4  and  C_5
REMARK    5  A    between atoms: C_5  and  C_6
REMARK    6  A    between atoms: C_6  and  C_7
REMARK    7  A    between atoms: C_7  and  C_8
REMARK    8  A    between atoms: C_8  and  C_9
REMARK    9  A    between atoms: C_9  and  C_10
REMARK   10  A    between atoms: C_10  and  C_11
REMARK   11  A    between atoms: C_11  and  C_12
REMARK   12  A    between atoms: C_12  and  C_13
REMARK   13  A    between atoms: C_13  and  C_14
REMARK   14  A    between atoms: C_14  and  C_15
REMARK   15  A    between atoms: C_15  and  C_16
REMARK   16  A    between atoms: C_19  and  O_20
REMARK   17  A    between atoms: C_22  and  C_23
REMARK                            x       y       z     vdW  Elec       q    Type
REMARK                         _______ _______ _______ _____ _____    ______ ____
ROOT
ATOM      1  C   UNL     1       0.124   4.357 -23.806  0.00  0.00    +0.000 C 
ENDROOT
BRANCH   1   2
ATOM      2  C   UNL     1      -0.325   3.468 -24.641  0.00  0.00    +0.000 C 
BRANCH   2   3
ATOM      3  C   UNL     1      -1.472   3.647 -25.225  0.00  0.00    +0.000 C 
BRANCH   3   4
ATOM      4  C   UNL     1      -2.407   4.327 -24.629  0.00  0.00    +0.000 C 
BRANCH   4   5
ATOM      5  C   UNL     1      -3.624   4.295 -25.084  0.00  0.00    -0.000 C 
BRANCH   5   6
ATOM      6  C   UNL     1      -4.523   3.573 -24.485  0.00  0.00    -0.000 C 
BRANCH   6   7
ATOM      7  C   UNL     1      -5.231   4.085 -23.522  0.00  0.00    -0.000 C 
BRANCH   7   8
ATOM      8  C   UNL     1      -5.590   3.345 -22.514  0.00  0.00    -0.000 C 
BRANCH   8   9
ATOM      9  C   UNL     1      -4.687   2.819 -21.741  0.00  0.00    -0.000 C 
BRANCH   9  10
ATOM     10  C   UNL     1      -3.861   3.584 -21.092  0.00  0.00    -0.000 C 
BRANCH  10  11
ATOM     11  C   UNL     1      -2.604   3.262 -21.011  0.00  0.00    -0.000 C 
BRANCH  11  13
ATOM     12  C   UNL     1      -0.954   1.782 -21.408  0.00  0.00    +0.004 C 
ATOM     13  C   UNL     1      -2.160   2.212 -21.635  0.00  0.00    -0.003 C 
ENDBRANCH  11  13
ENDBRANCH  10  11
ENDBRANCH   9  10
ENDBRANCH   8   9
ENDBRANCH   7   8
ENDBRANCH   6   7
ENDBRANCH   5   6
ENDBRANCH   4   5
ENDBRANCH   3   4
ENDBRANCH   2   3
ENDBRANCH   1   2
BRANCH   1  14
ATOM     14  C   UNL     1       1.301   4.213 -23.273  0.00  0.00    +0.005 C 
BRANCH  14  15
ATOM     15  C   UNL     1       1.858   3.039 -23.235  0.00  0.00    +0.036 C 
BRANCH  15  16
ATOM     16  C   UNL     1       3.126   2.930 -22.971  0.00  0.00    -0.038 A 
ATOM     17  C   UNL     1       3.952   3.862 -23.348  0.00  0.00    +0.008 A 
ATOM     18  C   UNL     1       5.220   3.751 -23.083  0.00  0.00    +0.046 A 
ATOM     19  C   UNL     1       5.663   2.712 -22.441  0.00  0.00    +0.117 A 
ATOM     20  C   UNL     1       4.837   1.781 -22.063  0.00  0.00    +0.055 A 
ATOM     21  C   UNL     1       3.569   1.890 -22.328  0.00  0.00    +0.004 A 
BRANCH  21  22
ATOM     22  C   UNL     1       2.744   0.959 -21.950  0.00  0.00    +0.072 C 
ATOM     23  O   UNL     1       2.417   0.009 -22.773  0.00  0.00    -0.545 OA
ATOM     24  O   UNL     1       2.246   0.981 -20.749  0.00  0.00    -0.545 OA
ENDBRANCH  21  22
BRANCH  19  25
ATOM     25  O   UNL     1       6.931   2.603 -22.176  0.00  0.00    -0.507 OA
ATOM     26  H   UNL     1       7.405   1.846 -22.458  0.00  0.00    +0.292 HD
ENDBRANCH  19  25
ENDBRANCH  15  16
ENDBRANCH  14  15
ENDBRANCH   1  14
TORSDOF 16
ENDMDL
MODEL 4
REMARK VINA RESULT:    -7.645      1.444      2.728
REMARK INTER + INTRA:         -17.111
REMARK INTER:                 -14.612
REMARK INTRA:                  -2.499
REMARK UNBOUND:                -2.538
REMARK  Name = ZINC000085340904
REMARK  17 active torsions:
REMARK  status: ('A' for Active; 'I' for Inactive)
REMARK    1  A    between atoms: C_1  and  C_2
REMARK    2  A    between atoms: C_2  and  C_3
REMARK    3  A    between atoms: C_3  and  C_4
REMARK    4  A    between atoms: C_4  and  C_5
REMARK    5  A    between atoms: C_5  and  C_6
REMARK    6  A    between atoms: C_6  and  C_7
REMARK    7  A    between atoms: C_7  and  C_8
REMARK    8  A    between atoms: C_8  and  C_9
REMARK    9  A    between atoms: C_9  and  C_10
REMARK   10  A    between atoms: C_10  and  C_11
REMARK   11  A    between atoms: C_11  and  C_12
REMARK   12  A    between atoms: C_12  and  C_13
REMARK   13  A    between atoms: C_13  and  C_14
REMARK   14  A    between atoms: C_14  and  C_15
REMARK   15  A    between atoms: C_15  and  C_16
REMARK   16  A    between atoms: C_19  and  O_20
REMARK   17  A    between atoms: C_22  and  C_23
REMARK                            x       y       z     vdW  Elec       q    Type
REMARK                         _______ _______ _______ _____ _____    ______ ____
ROOT
ATOM      1  C   UNL     1      -0.125   4.996 -23.587  0.00  0.00    +0.000 C 
ENDROOT
BRANCH   1   2
ATOM      2  C   UNL     1      -1.010   4.553 -22.744  0.00  0.00    +0.000 C 
BRANCH   2   3
ATOM      3  C   UNL     1      -0.887   3.362 -22.239  0.00  0.00    +0.000 C 
BRANCH   3   4
ATOM      4  C   UNL     1      -1.907   2.787 -21.673  0.00  0.00    +0.000 C 
BRANCH   4   5
ATOM      5  C   UNL     1      -2.554   3.397 -20.725  0.00  0.00    -0.000 C 
BRANCH   5   6
ATOM      6  C   UNL     1      -3.840   3.243 -20.613  0.00  0.00    -0.000 C 
BRANCH   6   7
ATOM      7  C   UNL     1      -4.516   2.706 -21.584  0.00  0.00    -0.000 C 
BRANCH   7   8
ATOM      8  C   UNL     1      -5.568   3.309 -22.055  0.00  0.00    -0.000 C 
BRANCH   8   9
ATOM      9  C   UNL     1      -5.547   3.812 -23.253  0.00  0.00    -0.000 C 
BRANCH   9  10
ATOM     10  C   UNL     1      -4.585   3.503 -24.071  0.00  0.00    -0.000 C 
BRANCH  10  11
ATOM     11  C   UNL     1      -4.129   4.391 -24.904  0.00  0.00    -0.000 C 
BRANCH  11  13
ATOM     12  C   UNL     1      -2.428   3.341 -25.940  0.00  0.00    +0.004 C 
ATOM     13  C   UNL     1      -3.540   4.013 -25.999  0.00  0.00    -0.003 C 
ENDBRANCH  11  13
ENDBRANCH  10  11
ENDBRANCH   9  10
ENDBRANCH   8   9
ENDBRANCH   7   8
ENDBRANCH   6   7
ENDBRANCH   5   6
ENDBRANCH   4   5
ENDBRANCH   3   4
ENDBRANCH   2   3
ENDBRANCH   1   2
BRANCH   1  14
ATOM     14  C   UNL     1       1.142   4.894 -23.313  0.00  0.00    +0.005 C 
BRANCH  14  15
ATOM     15  C   UNL     1       1.912   4.164 -24.063  0.00  0.00    +0.036 C 
BRANCH  15  16
ATOM     16  C   UNL     1       3.056   3.746 -23.608  0.00  0.00    -0.038 A 
ATOM     17  C   UNL     1       3.953   4.604 -23.219  0.00  0.00    +0.008 A 
ATOM     18  C   UNL     1       5.097   4.186 -22.764  0.00  0.00    +0.046 A 
ATOM     19  C   UNL     1       5.344   2.912 -22.697  0.00  0.00    +0.117 A 
ATOM     20  C   UNL     1       4.447   2.054 -23.086  0.00  0.00    +0.055 A 
ATOM     21  C   UNL     1       3.303   2.471 -23.541  0.00  0.00    +0.004 A 
BRANCH  21  22
ATOM     22  C   UNL     1       2.407   1.614 -23.930  0.00  0.00    +0.072 C 
ATOM     23  O   UNL     1       2.371   1.230 -25.170  0.00  0.00    -0.545 OA
ATOM     24  O   UNL     1       1.546   1.142 -23.077  0.00  0.00    -0.545 OA
ENDBRANCH  21  22
BRANCH  19  25
ATOM     25  O   UNL     1       6.488   2.495 -22.241  0.00  0.00    -0.507 OA
ATOM     26  H   UNL     1       6.799   2.795 -21.410  0.00  0.00    +0.292 HD
ENDBRANCH  19  25
ENDBRANCH  15  16
ENDBRANCH  14  15
ENDBRANCH   1  14
TORSDOF 16
ENDMDL
MODEL 5
REMARK VINA RESULT:    -7.589      1.531      2.798
REMARK INTER + INTRA:         -17.004
REMARK INTER:                 -14.527
REMARK INTRA:                  -2.477
REMARK UNBOUND:                -2.538
REMARK  Name = ZINC000085340904
REMARK  17 active torsions:
REMARK  status: ('A' for Active; 'I' for Inactive)
REMARK    1  A    between atoms: C_1  and  C_2
REMARK    2  A    between atoms: C_2  and  C_3
REMARK    3  A    between atoms: C_3  and  C_4
REMARK    4  A    between atoms: C_4  and  C_5
REMARK    5  A    between atoms: C_5  and  C_6
REMARK    6  A    between atoms: C_6  and  C_7
REMARK    7  A    between atoms: C_7  and  C_8
REMARK    8  A    between atoms: C_8  and  C_9
REMARK    9  A    between atoms: C_9  and  C_10
REMARK   10  A    between atoms: C_10  and  C_11
REMARK   11  A    between atoms: C_11  and  C_12
REMARK   12  A    between atoms: C_12  and  C_13
REMARK   13  A    between atoms: C_13  and  C_14
REMARK   14  A    between atoms: C_14  and  C_15
REMARK   15  A    between atoms: C_15  and  C_16
REMARK   16  A    between atoms: C_19  and  O_20
REMARK   17  A    between atoms: C_22  and  C_23
REMARK                            x       y       z     vdW  Elec       q    Type
REMARK                         _______ _______ _______ _____ _____    ______ ____
ROOT
ATOM      1  C   UNL     1       0.323   4.919 -24.042  0.00  0.00    +0.000 C 
ENDROOT
BRANCH   1   2
ATOM      2  C   UNL     1      -0.276   4.981 -22.891  0.00  0.00    +0.000 C 
BRANCH   2   3
ATOM      3  C   UNL     1      -1.500   4.558 -22.772  0.00  0.00    +0.000 C 
BRANCH   3   4
ATOM      4  C   UNL     1      -1.809   3.720 -21.827  0.00  0.00    +0.000 C 
BRANCH   4   5
ATOM      5  C   UNL     1      -2.823   3.962 -21.050  0.00  0.00    -0.000 C 
BRANCH   5   6
ATOM      6  C   UNL     1      -3.641   3.003 -20.732  0.00  0.00    -0.000 C 
BRANCH   6   7
ATOM      7  C   UNL     1      -4.597   2.668 -21.547  0.00  0.00    -0.000 C 
BRANCH   7   8
ATOM      8  C   UNL     1      -5.227   3.585 -22.220  0.00  0.00    -0.000 C 
BRANCH   8   9
ATOM      9  C   UNL     1      -5.336   3.483 -23.511  0.00  0.00    -0.000 C 
BRANCH   9  10
ATOM     10  C   UNL     1      -5.072   4.507 -24.268  0.00  0.00    -0.000 C 
BRANCH  10  11
ATOM     11  C   UNL     1      -4.011   4.502 -25.021  0.00  0.00    -0.000 C 
BRANCH  11  13
ATOM     12  C   UNL     1      -3.018   3.454 -26.747  0.00  0.00    +0.004 C 
ATOM     13  C   UNL     1      -3.631   3.404 -25.602  0.00  0.00    -0.003 C 
ENDBRANCH  11  13
ENDBRANCH  10  11
ENDBRANCH   9  10
ENDBRANCH   8   9
ENDBRANCH   7   8
ENDBRANCH   6   7
ENDBRANCH   5   6
ENDBRANCH   4   5
ENDBRANCH   3   4
ENDBRANCH   2   3
ENDBRANCH   1   2
BRANCH   1  14
ATOM     14  C   UNL     1       0.673   3.766 -24.533  0.00  0.00    +0.005 C 
BRANCH  14  15
ATOM     15  C   UNL     1       1.874   3.312 -24.333  0.00  0.00    +0.036 C 
BRANCH  15  16
ATOM     16  C   UNL     1       2.151   2.664 -23.242  0.00  0.00    -0.038 A 
ATOM     17  C   UNL     1       1.311   1.787 -22.775  0.00  0.00    +0.008 A 
ATOM     18  C   UNL     1       1.589   1.139 -21.683  0.00  0.00    +0.046 A 
ATOM     19  C   UNL     1       2.705   1.366 -21.057  0.00  0.00    +0.117 A 
ATOM     20  C   UNL     1       3.545   2.243 -21.524  0.00  0.00    +0.055 A 
ATOM     21  C   UNL     1       3.268   2.891 -22.615  0.00  0.00    +0.004 A 
BRANCH  21  22
ATOM     22  C   UNL     1       4.108   3.767 -23.082  0.00  0.00    +0.072 C 
ATOM     23  O   UNL     1       5.129   3.378 -23.785  0.00  0.00    -0.545 OA
ATOM     24  O   UNL     1       3.925   5.033 -22.844  0.00  0.00    -0.545 OA
ENDBRANCH  21  22
BRANCH  19  25
ATOM     25  O   UNL     1       2.981   0.717 -19.965  0.00  0.00    -0.507 OA
ATOM     26  H   UNL     1       2.947  -0.219 -19.955  0.00  0.00    +0.292 HD
ENDBRANCH  19  25
ENDBRANCH  15  16
ENDBRANCH  14  15
ENDBRANCH   1  14
TORSDOF 16
ENDMDL
MODEL 6
REMARK VINA RESULT:    -7.549      1.598      3.297
REMARK INTER + INTRA:         -16.928
REMARK INTER:                 -14.209
REMARK INTRA:                  -2.719
REMARK UNBOUND:                -2.538
REMARK  Name = ZINC000085340904
REMARK  17 active torsions:
REMARK  status: ('A' for Active; 'I' for Inactive)
REMARK    1  A    between atoms: C_1  and  C_2
REMARK    2  A    between atoms: C_2  and  C_3
REMARK    3  A    between atoms: C_3  and  C_4
REMARK    4  A    between atoms: C_4  and  C_5
REMARK    5  A    between atoms: C_5  and  C_6
REMARK    6  A    between atoms: C_6  and  C_7
REMARK    7  A    between atoms: C_7  and  C_8
REMARK    8  A    between atoms: C_8  and  C_9
REMARK    9  A    between atoms: C_9  and  C_10
REMARK   10  A    between atoms: C_10  and  C_11
REMARK   11  A    between atoms: C_11  and  C_12
REMARK   12  A    between atoms: C_12  and  C_13
REMARK   13  A    between atoms: C_13  and  C_14
REMARK   14  A    between atoms: C_14  and  C_15
REMARK   15  A    between atoms: C_15  and  C_16
REMARK   16  A    between atoms: C_19  and  O_20
REMARK   17  A    between atoms: C_22  and  C_23
REMARK                            x       y       z     vdW  Elec       q    Type
REMARK                         _______ _______ _______ _____ _____    ______ ____
ROOT
ATOM      1  C   UNL     1       0.093   5.048 -22.946  0.00  0.00    +0.000 C 
ENDROOT
BRANCH   1   2
ATOM      2  C   UNL     1      -0.997   4.557 -23.456  0.00  0.00    +0.000 C 
BRANCH   2   3
ATOM      3  C   UNL     1      -1.222   3.278 -23.400  0.00  0.00    +0.000 C 
BRANCH   3   4
ATOM      4  C   UNL     1      -0.950   2.617 -22.314  0.00  0.00    +0.000 C 
BRANCH   4   5
ATOM      5  C   UNL     1      -1.907   2.050 -21.641  0.00  0.00    -0.000 C 
BRANCH   5   6
ATOM      6  C   UNL     1      -2.694   2.771 -20.899  0.00  0.00    -0.000 C 
BRANCH   6   7
ATOM      7  C   UNL     1      -3.983   2.665 -21.026  0.00  0.00    -0.000 C 
BRANCH   7   8
ATOM      8  C   UNL     1      -4.668   3.645 -21.536  0.00  0.00    -0.000 C 
BRANCH   8   9
ATOM      9  C   UNL     1      -5.328   3.471 -22.643  0.00  0.00    -0.000 C 
BRANCH   9  10
ATOM     10  C   UNL     1      -4.694   3.432 -23.777  0.00  0.00    -0.000 C 
BRANCH  10  11
ATOM     11  C   UNL     1      -4.807   4.417 -24.619  0.00  0.00    -0.000 C 
BRANCH  11  13
ATOM     12  C   UNL     1      -3.640   3.394 -26.250  0.00  0.00    +0.004 C 
ATOM     13  C   UNL     1      -4.019   4.483 -25.651  0.00  0.00    -0.003 C 
ENDBRANCH  11  13
ENDBRANCH  10  11
ENDBRANCH   9  10
ENDBRANCH   8   9
ENDBRANCH   7   8
ENDBRANCH   6   7
ENDBRANCH   5   6
ENDBRANCH   4   5
ENDBRANCH   3   4
ENDBRANCH   2   3
ENDBRANCH   1   2
BRANCH   1  14
ATOM     14  C   UNL     1       1.157   5.174 -23.683  0.00  0.00    +0.005 C 
BRANCH  14  15
ATOM     15  C   UNL     1       2.237   4.516 -23.383  0.00  0.00    +0.036 C 
BRANCH  15  16
ATOM     16  C   UNL     1       2.459   3.353 -23.918  0.00  0.00    -0.038 A 
ATOM     17  C   UNL     1       1.936   3.058 -25.072  0.00  0.00    +0.008 A 
ATOM     18  C   UNL     1       2.159   1.894 -25.606  0.00  0.00    +0.046 A 
ATOM     19  C   UNL     1       2.902   1.025 -24.989  0.00  0.00    +0.117 A 
ATOM     20  C   UNL     1       3.424   1.320 -23.834  0.00  0.00    +0.055 A 
ATOM     21  C   UNL     1       3.203   2.484 -23.299  0.00  0.00    +0.004 A 
BRANCH  21  22
ATOM     22  C   UNL     1       3.725   2.779 -22.146  0.00  0.00    +0.072 C 
ATOM     23  O   UNL     1       3.241   2.253 -21.061  0.00  0.00    -0.545 OA
ATOM     24  O   UNL     1       4.731   3.600 -22.079  0.00  0.00    -0.545 OA
ENDBRANCH  21  22
BRANCH  19  25
ATOM     25  O   UNL     1       3.124  -0.138 -25.524  0.00  0.00    -0.507 OA
ATOM     26  H   UNL     1       2.527  -0.484 -26.159  0.00  0.00    +0.292 HD
ENDBRANCH  19  25
ENDBRANCH  15  16
ENDBRANCH  14  15
ENDBRANCH   1  14
TORSDOF 16
ENDMDL
MODEL 7
REMARK VINA RESULT:    -7.475      2.702      6.958
REMARK INTER + INTRA:         -16.786
REMARK INTER:                 -13.367
REMARK INTRA:                  -3.418
REMARK UNBOUND:                -2.538
REMARK  Name = ZINC000085340904
REMARK  17 active torsions:
REMARK  status: ('A' for Active; 'I' for Inactive)
REMARK    1  A    between atoms: C_1  and  C_2
REMARK    2  A    between atoms: C_2  and  C_3
REMARK    3  A    between atoms: C_3  and  C_4
REMARK    4  A    between atoms: C_4  and  C_5
REMARK    5  A    between atoms: C_5  and  C_6
REMARK    6  A    between atoms: C_6  and  C_7
REMARK    7  A    between atoms: C_7  and  C_8
REMARK    8  A    between atoms: C_8  and  C_9
REMARK    9  A    between atoms: C_9  and  C_10
REMARK   10  A    between atoms: C_10  and  C_11
REMARK   11  A    between atoms: C_11  and  C_12
REMARK   12  A    between atoms: C_12  and  C_13
REMARK   13  A    between atoms: C_13  and  C_14
REMARK   14  A    between atoms: C_14  and  C_15
REMARK   15  A    between atoms: C_15  and  C_16
REMARK   16  A    between atoms: C_19  and  O_20
REMARK   17  A    between atoms: C_22  and  C_23
REMARK                            x       y       z     vdW  Elec       q    Type
REMARK                         _______ _______ _______ _____ _____    ______ ____
ROOT
ATOM      1  C   UNL     1       0.187   1.491 -21.796  0.00  0.00    +0.000 C 
ENDROOT
BRANCH   1   2
ATOM      2  C   UNL     1       1.181   1.490 -20.958  0.00  0.00    +0.000 C 
BRANCH   2   3
ATOM      3  C   UNL     1       2.391   1.289 -21.386  0.00  0.00    +0.000 C 
BRANCH   3   4
ATOM      4  C   UNL     1       2.589   0.813 -22.580  0.00  0.00    +0.000 C 
BRANCH   4   5
ATOM      5  C   UNL     1       3.662   1.135 -23.239  0.00  0.00    -0.000 C 
BRANCH   5   6
ATOM      6  C   UNL     1       4.384   2.143 -22.851  0.00  0.00    -0.000 C 
BRANCH   6   7
ATOM      7  C   UNL     1       4.605   3.134 -23.663  0.00  0.00    -0.000 C 
BRANCH   7   8
ATOM      8  C   UNL     1       4.346   4.352 -23.288  0.00  0.00    -0.000 C 
BRANCH   8   9
ATOM      9  C   UNL     1       3.168   4.653 -22.827  0.00  0.00    -0.000 C 
BRANCH   9  10
ATOM     10  C   UNL     1       2.265   5.145 -23.622  0.00  0.00    -0.000 C 
BRANCH  10  11
ATOM     11  C   UNL     1       1.150   4.504 -23.815  0.00  0.00    -0.000 C 
BRANCH  11  13
ATOM     12  C   UNL     1       1.291   2.982 -25.467  0.00  0.00    +0.004 C 
ATOM     13  C   UNL     1       0.827   4.106 -25.009  0.00  0.00    -0.003 C 
ENDBRANCH  11  13
ENDBRANCH  10  11
ENDBRANCH   9  10
ENDBRANCH   8   9
ENDBRANCH   7   8
ENDBRANCH   6   7
ENDBRANCH   5   6
ENDBRANCH   4   5
ENDBRANCH   3   4
ENDBRANCH   2   3
ENDBRANCH   1   2
BRANCH   1  14
ATOM     14  C   UNL     1      -0.876   2.197 -21.545  0.00  0.00    +0.005 C 
BRANCH  14  15
ATOM     15  C   UNL     1      -1.595   2.661 -22.523  0.00  0.00    +0.036 C 
BRANCH  15  16
ATOM     16  C   UNL     1      -2.875   2.824 -22.368  0.00  0.00    -0.038 A 
ATOM     17  C   UNL     1      -3.445   2.469 -21.254  0.00  0.00    +0.008 A 
ATOM     18  C   UNL     1      -4.726   2.633 -21.100  0.00  0.00    +0.046 A 
ATOM     19  C   UNL     1      -5.436   3.150 -22.057  0.00  0.00    +0.117 A 
ATOM     20  C   UNL     1      -4.865   3.505 -23.171  0.00  0.00    +0.055 A 
ATOM     21  C   UNL     1      -3.585   3.342 -23.326  0.00  0.00    +0.004 A 
BRANCH  21  22
ATOM     22  C   UNL     1      -3.015   3.696 -24.439  0.00  0.00    +0.072 C 
ATOM     23  O   UNL     1      -2.899   2.841 -25.411  0.00  0.00    -0.545 OA
ATOM     24  O   UNL     1      -2.561   4.907 -24.580  0.00  0.00    -0.545 OA
ENDBRANCH  21  22
BRANCH  19  25
ATOM     25  O   UNL     1      -6.716   3.313 -21.902  0.00  0.00    -0.507 OA
ATOM     26  H   UNL     1      -7.044   4.097 -21.508  0.00  0.00    +0.292 HD
ENDBRANCH  19  25
ENDBRANCH  15  16
ENDBRANCH  14  15
ENDBRANCH   1  14
TORSDOF 16
ENDMDL
MODEL 8
REMARK VINA RESULT:    -7.453      1.789      4.893
REMARK INTER + INTRA:         -16.745
REMARK INTER:                 -14.207
REMARK INTRA:                  -2.538
REMARK UNBOUND:                -2.538
REMARK  Name = ZINC000085340904
REMARK  17 active torsions:
REMARK  status: ('A' for Active; 'I' for Inactive)
REMARK    1  A    between atoms: C_1  and  C_2
REMARK    2  A    between atoms: C_2  and  C_3
REMARK    3  A    between atoms: C_3  and  C_4
REMARK    4  A    between atoms: C_4  and  C_5
REMARK    5  A    between atoms: C_5  and  C_6
REMARK    6  A    between atoms: C_6  and  C_7
REMARK    7  A    between atoms: C_7  and  C_8
REMARK    8  A    between atoms: C_8  and  C_9
REMARK    9  A    between atoms: C_9  and  C_10
REMARK   10  A    between atoms: C_10  and  C_11
REMARK   11  A    between atoms: C_11  and  C_12
REMARK   12  A    between atoms: C_12  and  C_13
REMARK   13  A    between atoms: C_13  and  C_14
REMARK   14  A    between atoms: C_14  and  C_15
REMARK   15  A    between atoms: C_15  and  C_16
REMARK   16  A    between atoms: C_19  and  O_20
REMARK   17  A    between atoms: C_22  and  C_23
REMARK                            x       y       z     vdW  Elec       q    Type
REMARK                         _______ _______ _______ _____ _____    ______ ____
ROOT
ATOM      1  C   UNL     1       4.925   1.416 -22.238  0.00  0.00    +0.000 C 
ENDROOT
BRANCH   1   2
ATOM      2  C   UNL     1       4.340   1.498 -21.080  0.00  0.00    +0.000 C 
BRANCH   2   3
ATOM      3  C   UNL     1       3.244   0.836 -20.857  0.00  0.00    +0.000 C 
BRANCH   3   4
ATOM      4  C   UNL     1       2.130   1.474 -20.652  0.00  0.00    +0.000 C 
BRANCH   4   5
ATOM      5  C   UNL     1       1.175   1.414 -21.532  0.00  0.00    -0.000 C 
BRANCH   5   6
ATOM      6  C   UNL     1      -0.064   1.520 -21.155  0.00  0.00    -0.000 C 
BRANCH   6   7
ATOM      7  C   UNL     1      -0.791   2.509 -21.583  0.00  0.00    -0.000 C 
BRANCH   7   8
ATOM      8  C   UNL     1      -2.088   2.429 -21.539  0.00  0.00    -0.000 C 
BRANCH   8   9
ATOM      9  C   UNL     1      -2.759   3.185 -20.723  0.00  0.00    -0.000 C 
BRANCH   9  10
ATOM     10  C   UNL     1      -3.889   3.705 -21.099  0.00  0.00    -0.000 C 
BRANCH  10  11
ATOM     11  C   UNL     1      -4.872   2.933 -21.459  0.00  0.00    -0.000 C 
BRANCH  11  13
ATOM     12  C   UNL     1      -5.273   3.822 -23.488  0.00  0.00    +0.004 C 
ATOM     13  C   UNL     1      -5.712   3.332 -22.367  0.00  0.00    -0.003 C 
ENDBRANCH  11  13
ENDBRANCH  10  11
ENDBRANCH   9  10
ENDBRANCH   8   9
ENDBRANCH   7   8
ENDBRANCH   6   7
ENDBRANCH   5   6
ENDBRANCH   4   5
ENDBRANCH   3   4
ENDBRANCH   2   3
ENDBRANCH   1   2
BRANCH   1  14
ATOM     14  C   UNL     1       5.121   2.489 -22.945  0.00  0.00    +0.005 C 
BRANCH  14  15
ATOM     15  C   UNL     1       4.369   2.734 -23.978  0.00  0.00    +0.036 C 
BRANCH  15  16
ATOM     16  C   UNL     1       3.319   3.489 -23.852  0.00  0.00    -0.038 A 
ATOM     17  C   UNL     1       3.385   4.584 -23.152  0.00  0.00    +0.008 A 
ATOM     18  C   UNL     1       2.334   5.339 -23.027  0.00  0.00    +0.046 A 
ATOM     19  C   UNL     1       1.219   5.001 -23.602  0.00  0.00    +0.117 A 
ATOM     20  C   UNL     1       1.153   3.907 -24.302  0.00  0.00    +0.055 A 
ATOM     21  C   UNL     1       2.203   3.151 -24.427  0.00  0.00    +0.004 A 
BRANCH  21  22
ATOM     22  C   UNL     1       2.137   2.058 -25.127  0.00  0.00    +0.072 C 
ATOM     23  O   UNL     1       2.339   0.909 -24.556  0.00  0.00    -0.545 OA
ATOM     24  O   UNL     1       1.869   2.115 -26.398  0.00  0.00    -0.545 OA
ENDBRANCH  21  22
BRANCH  19  25
ATOM     25  O   UNL     1       0.169   5.757 -23.476  0.00  0.00    -0.507 OA
ATOM     26  H   UNL     1      -0.688   5.380 -23.517  0.00  0.00    +0.292 HD
ENDBRANCH  19  25
ENDBRANCH  15  16
ENDBRANCH  14  15
ENDBRANCH   1  14
TORSDOF 16
ENDMDL
MODEL 9
REMARK VINA RESULT:    -7.290      0.999      2.569
REMARK INTER + INTRA:         -16.434
REMARK INTER:                 -13.936
REMARK INTRA:                  -2.498
REMARK UNBOUND:                -2.538
REMARK  Name = ZINC000085340904
REMARK  17 active torsions:
REMARK  status: ('A' for Active; 'I' for Inactive)
REMARK    1  A    between atoms: C_1  and  C_2
REMARK    2  A    between atoms: C_2  and  C_3
REMARK    3  A    between atoms: C_3  and  C_4
REMARK    4  A    between atoms: C_4  and  C_5
REMARK    5  A    between atoms: C_5  and  C_6
REMARK    6  A    between atoms: C_6  and  C_7
REMARK    7  A    between atoms: C_7  and  C_8
REMARK    8  A    between atoms: C_8  and  C_9
REMARK    9  A    between atoms: C_9  and  C_10
REMARK   10  A    between atoms: C_10  and  C_11
REMARK   11  A    between atoms: C_11  and  C_12
REMARK   12  A    between atoms: C_12  and  C_13
REMARK   13  A    between atoms: C_13  and  C_14
REMARK   14  A    between atoms: C_14  and  C_15
REMARK   15  A    between atoms: C_15  and  C_16
REMARK   16  A    between atoms: C_19  and  O_20
REMARK   17  A    between atoms: C_22  and  C_23
REMARK                            x       y       z     vdW  Elec       q    Type
REMARK                         _______ _______ _______ _____ _____    ______ ____
ROOT
ATOM      1  C   UNL     1      -0.528   2.023 -21.552  0.00  0.00    +0.000 C 
ENDROOT
BRANCH   1   2
ATOM      2  C   UNL     1      -0.805   2.468 -22.742  0.00  0.00    +0.000 C 
BRANCH   2   3
ATOM      3  C   UNL     1      -0.918   3.746 -22.947  0.00  0.00    +0.000 C 
BRANCH   3   4
ATOM      4  C   UNL     1      -1.327   4.186 -24.101  0.00  0.00    +0.000 C 
BRANCH   4   5
ATOM      5  C   UNL     1      -1.694   3.347 -25.024  0.00  0.00    -0.000 C 
BRANCH   5   6
ATOM      6  C   UNL     1      -2.954   3.073 -25.188  0.00  0.00    -0.000 C 
BRANCH   6   7
ATOM      7  C   UNL     1      -3.807   4.034 -25.386  0.00  0.00    -0.000 C 
BRANCH   7   8
ATOM      8  C   UNL     1      -4.500   4.502 -24.390  0.00  0.00    -0.000 C 
BRANCH   8   9
ATOM      9  C   UNL     1      -5.257   3.708 -23.694  0.00  0.00    -0.000 C 
BRANCH   9  10
ATOM     10  C   UNL     1      -5.137   3.664 -22.400  0.00  0.00    -0.000 C 
BRANCH  10  11
ATOM     11  C   UNL     1      -4.459   2.705 -21.842  0.00  0.00    -0.000 C 
BRANCH  11  13
ATOM     12  C   UNL     1      -3.339   4.027 -20.405  0.00  0.00    +0.004 C 
ATOM     13  C   UNL     1      -3.907   2.891 -20.680  0.00  0.00    -0.003 C 
ENDBRANCH  11  13
ENDBRANCH  10  11
ENDBRANCH   9  10
ENDBRANCH   8   9
ENDBRANCH   7   8
ENDBRANCH   6   7
ENDBRANCH   5   6
ENDBRANCH   4   5
ENDBRANCH   3   4
ENDBRANCH   2   3
ENDBRANCH   1   2
BRANCH   1  14
ATOM     14  C   UNL     1       0.642   1.511 -21.305  0.00  0.00    +0.005 C 
BRANCH  14  15
ATOM     15  C   UNL     1       1.445   1.222 -22.286  0.00  0.00    +0.036 C 
BRANCH  15  16
ATOM     16  C   UNL     1       2.693   1.579 -22.229  0.00  0.00    -0.038 A 
ATOM     17  C   UNL     1       3.353   1.465 -21.114  0.00  0.00    +0.008 A 
ATOM     18  C   UNL     1       4.602   1.822 -21.059  0.00  0.00    +0.046 A 
ATOM     19  C   UNL     1       5.191   2.293 -22.116  0.00  0.00    +0.117 A 
ATOM     20  C   UNL     1       4.532   2.407 -23.232  0.00  0.00    +0.055 A 
ATOM     21  C   UNL     1       3.283   2.050 -23.288  0.00  0.00    +0.004 A 
BRANCH  21  22
ATOM     22  C   UNL     1       2.624   2.164 -24.403  0.00  0.00    +0.072 C 
ATOM     23  O   UNL     1       2.132   3.315 -24.752  0.00  0.00    -0.545 OA
ATOM     24  O   UNL     1       2.458   1.126 -25.169  0.00  0.00    -0.545 OA
ENDBRANCH  21  22
BRANCH  19  25
ATOM     25  O   UNL     1       6.440   2.650 -22.060  0.00  0.00    -0.507 OA
ATOM     26  H   UNL     1       6.666   3.530 -21.834  0.00  0.00    +0.292 HD
ENDBRANCH  19  25
ENDBRANCH  15  16
ENDBRANCH  14  15
ENDBRANCH   1  14
TORSDOF 16
ENDMDL
