MODEL 1
REMARK VINA RESULT:   -10.332      0.000      0.000
REMARK INTER + INTRA:         -10.332
REMARK INTER:                 -10.332
REMARK INTRA:                   0.000
REMARK UNBOUND:                 0.000
REMARK  Name = C[C@@H]1CC[C@@H]2[C@@H](C)C(=O)O[C@H]3O[C@]4(C)CC[C@@H]1[C@]32OO4    ZINC000100858734
REMARK  3 active torsions:
REMARK  status: ('A' for Active; 'I' for Inactive)
REMARK    1  A    between atoms: C_1  and  C_2
REMARK    2  A    between atoms: C_6  and  C_7
REMARK    3  A    between atoms: C_13  and  C_14
REMARK                            x       y       z     vdW  Elec       q    Type
REMARK                         _______ _______ _______ _____ _____    ______ ____
ROOT
ATOM      1  C   UNL     1      -5.730   3.385 -22.123  0.00  0.00    +0.008 C 
ATOM      2  C   UNL     1      -4.464   3.048 -22.107  0.00  0.00    -0.008 C 
ATOM      3  C   UNL     1      -3.895   2.694 -20.982  0.00  0.00    +0.004 C 
ATOM      4  C   UNL     1      -2.614   2.352 -20.966  0.00  0.00    +0.008 C 
ATOM      5  C   UNL     1      -1.917   2.370 -22.075  0.00  0.00    +0.044 C 
ATOM      6  C   UNL     1      -0.651   2.033 -22.059  0.00  0.00    +0.101 C 
ATOM      7  C   UNL     1       0.060   2.046 -23.168  0.00  0.00    +0.313 C 
ATOM      8  O   UNL     1      -0.524   2.407 -24.309  0.00  0.00    -0.432 OA
ATOM      9  C   UNL     1      -1.789   2.744 -24.325  0.00  0.00    +0.349 C 
ATOM     10  O   UNL     1      -2.058   3.042 -25.572  0.00  0.00    -0.305 OA
ATOM     11  C   UNL     1      -3.218   3.440 -26.075  0.00  0.00    +0.204 C 
ATOM     12  C   UNL     1      -4.351   3.624 -25.443  0.00  0.00    +0.068 C 
ATOM     13  C   UNL     1      -4.611   3.459 -24.156  0.00  0.00    +0.012 C 
ATOM     14  C   UNL     1      -3.234   3.680 -27.379  0.00  0.00    +0.077 C 
ATOM     15  O   UNL     1      -3.682   3.366 -24.994  0.00  0.00    -0.199 OA
ATOM     16  O   UNL     1      -3.406   3.089 -23.873  0.00  0.00    -0.218 OA
ATOM     17  O   UNL     1       1.333   1.706 -23.148  0.00  0.00    -0.250 OA
ATOM     18  C   UNL     1      -0.089   1.679 -20.930  0.00  0.00    +0.019 C 
ATOM     19  C   UNL     1      -2.486   2.724 -23.200  0.00  0.00    +0.173 C 
ATOM     20  C   UNL     1      -3.768   3.066 -23.216  0.00  0.00    +0.034 C 
ENDROOT
TORSDOF 0
ENDMDL
MODEL 2
REMARK VINA RESULT:    -9.855      1.075      4.000
REMARK INTER + INTRA:          -9.855
REMARK INTER:                  -9.855
REMARK INTRA:                   0.000
REMARK UNBOUND:                 0.000
REMARK  Name = C[C@@H]1CC[C@@H]2[C@@H](C)C(=O)O[C@H]3O[C@]4(C)CC[C@@H]1[C@]32OO4    ZINC000100858734
REMARK  3 active torsions:
REMARK  status: ('A' for Active; 'I' for Inactive)
REMARK    1  A    between atoms: C_1  and  C_2
REMARK    2  A    between atoms: C_6  and  C_7
REMARK    3  A    between atoms: C_13  and  C_14
REMARK                            x       y       z     vdW  Elec       q    Type
REMARK                         _______ _______ _______ _____ _____    ______ ____
ROOT
ATOM      1  C   UNL     1      -3.687   2.884 -19.915  0.00  0.00    +0.008 C 
ATOM      2  C   UNL     1      -3.754   3.041 -21.214  0.00  0.00    -0.008 C 
ATOM      3  C   UNL     1      -4.885   3.395 -21.773  0.00  0.00    +0.004 C 
ATOM      4  C   UNL     1      -4.953   3.555 -23.088  0.00  0.00    +0.008 C 
ATOM      5  C   UNL     1      -3.890   3.358 -23.828  0.00  0.00    +0.044 C 
ATOM      6  C   UNL     1      -3.957   3.516 -25.127  0.00  0.00    +0.101 C 
ATOM      7  C   UNL     1      -2.895   3.321 -25.881  0.00  0.00    +0.313 C 
ATOM      8  O   UNL     1      -1.749   2.961 -25.308  0.00  0.00    -0.432 OA
ATOM      9  C   UNL     1      -1.681   2.804 -24.010  0.00  0.00    +0.349 C 
ATOM     10  O   UNL     1      -0.443   2.455 -23.761  0.00  0.00    -0.305 OA
ATOM     11  C   UNL     1       0.099   2.187 -22.582  0.00  0.00    +0.204 C 
ATOM     12  C   UNL     1      -0.476   2.210 -21.405  0.00  0.00    +0.068 C 
ATOM     13  C   UNL     1      -1.733   2.505 -21.110  0.00  0.00    +0.012 C 
ATOM     14  C   UNL     1       1.383   1.855 -22.595  0.00  0.00    +0.077 C 
ATOM     15  O   UNL     1      -0.945   2.405 -22.082  0.00  0.00    -0.199 OA
ATOM     16  O   UNL     1      -2.060   2.722 -22.340  0.00  0.00    -0.218 OA
ATOM     17  O   UNL     1      -2.967   3.481 -27.187  0.00  0.00    -0.250 OA
ATOM     18  C   UNL     1      -5.091   3.870 -25.679  0.00  0.00    +0.019 C 
ATOM     19  C   UNL     1      -2.759   3.004 -23.269  0.00  0.00    +0.173 C 
ATOM     20  C   UNL     1      -2.691   2.845 -21.954  0.00  0.00    +0.034 C 
ENDROOT
TORSDOF 0
ENDMDL
MODEL 3
REMARK VINA RESULT:    -9.790      1.618      4.073
REMARK INTER + INTRA:          -9.790
REMARK INTER:                  -9.790
REMARK INTRA:                   0.000
REMARK UNBOUND:                 0.000
REMARK  Name = C[C@@H]1CC[C@@H]2[C@@H](C)C(=O)O[C@H]3O[C@]4(C)CC[C@@H]1[C@]32OO4    ZINC000100858734
REMARK  3 active torsions:
REMARK  status: ('A' for Active; 'I' for Inactive)
REMARK    1  A    between atoms: C_1  and  C_2
REMARK    2  A    between atoms: C_6  and  C_7
REMARK    3  A    between atoms: C_13  and  C_14
REMARK                            x       y       z     vdW  Elec       q    Type
REMARK                         _______ _______ _______ _____ _____    ______ ____
ROOT
ATOM      1  C   UNL     1      -2.932   3.708 -27.123  0.00  0.00    +0.008 C 
ATOM      2  C   UNL     1      -3.261   3.618 -25.859  0.00  0.00    -0.008 C 
ATOM      3  C   UNL     1      -4.523   3.548 -25.514  0.00  0.00    +0.004 C 
ATOM      4  C   UNL     1      -4.857   3.456 -24.234  0.00  0.00    +0.008 C 
ATOM      5  C   UNL     1      -3.925   3.436 -23.313  0.00  0.00    +0.044 C 
ATOM      6  C   UNL     1      -4.254   3.346 -22.049  0.00  0.00    +0.101 C 
ATOM      7  C   UNL     1      -3.326   3.325 -21.114  0.00  0.00    +0.313 C 
ATOM      8  O   UNL     1      -2.045   3.397 -21.470  0.00  0.00    -0.432 OA
ATOM      9  C   UNL     1      -1.715   3.487 -22.734  0.00  0.00    +0.349 C 
ATOM     10  O   UNL     1      -0.407   3.539 -22.753  0.00  0.00    -0.305 OA
ATOM     11  C   UNL     1       0.382   3.635 -23.815  0.00  0.00    +0.204 C 
ATOM     12  C   UNL     1       0.034   3.699 -25.076  0.00  0.00    +0.068 C 
ATOM     13  C   UNL     1      -1.185   3.683 -25.594  0.00  0.00    +0.012 C 
ATOM     14  C   UNL     1       1.684   3.671 -23.569  0.00  0.00    +0.077 C 
ATOM     15  O   UNL     1      -0.579   3.639 -24.495  0.00  0.00    -0.199 OA
ATOM     16  O   UNL     1      -1.765   3.590 -24.444  0.00  0.00    -0.218 OA
ATOM     17  O   UNL     1      -3.662   3.234 -19.843  0.00  0.00    -0.250 OA
ATOM     18  C   UNL     1      -5.518   3.276 -21.712  0.00  0.00    +0.019 C 
ATOM     19  C   UNL     1      -2.663   3.507 -23.658  0.00  0.00    +0.173 C 
ATOM     20  C   UNL     1      -2.329   3.598 -24.938  0.00  0.00    +0.034 C 
ENDROOT
TORSDOF 0
ENDMDL
MODEL 4
REMARK VINA RESULT:    -9.632      1.407      4.033
REMARK INTER + INTRA:          -9.632
REMARK INTER:                  -9.632
REMARK INTRA:                   0.000
REMARK UNBOUND:                 0.000
REMARK  Name = C[C@@H]1CC[C@@H]2[C@@H](C)C(=O)O[C@H]3O[C@]4(C)CC[C@@H]1[C@]32OO4    ZINC000100858734
REMARK  3 active torsions:
REMARK  status: ('A' for Active; 'I' for Inactive)
REMARK    1  A    between atoms: C_1  and  C_2
REMARK    2  A    between atoms: C_6  and  C_7
REMARK    3  A    between atoms: C_13  and  C_14
REMARK                            x       y       z     vdW  Elec       q    Type
REMARK                         _______ _______ _______ _____ _____    ______ ____
ROOT
ATOM      1  C   UNL     1      -0.300   1.488 -20.916  0.00  0.00    +0.008 C 
ATOM      2  C   UNL     1      -1.305   2.034 -21.556  0.00  0.00    -0.008 C 
ATOM      3  C   UNL     1      -2.513   1.971 -21.054  0.00  0.00    +0.004 C 
ATOM      4  C   UNL     1      -3.530   2.523 -21.703  0.00  0.00    +0.008 C 
ATOM      5  C   UNL     1      -3.326   3.132 -22.845  0.00  0.00    +0.044 C 
ATOM      6  C   UNL     1      -4.330   3.677 -23.485  0.00  0.00    +0.101 C 
ATOM      7  C   UNL     1      -4.138   4.291 -24.634  0.00  0.00    +0.313 C 
ATOM      8  O   UNL     1      -2.908   4.352 -25.140  0.00  0.00    -0.432 OA
ATOM      9  C   UNL     1      -1.904   3.807 -24.501  0.00  0.00    +0.349 C 
ATOM     10  O   UNL     1      -0.849   4.034 -25.243  0.00  0.00    -0.305 OA
ATOM     11  C   UNL     1       0.402   3.669 -25.001  0.00  0.00    +0.204 C 
ATOM     12  C   UNL     1       0.864   3.003 -23.972  0.00  0.00    +0.068 C 
ATOM     13  C   UNL     1       0.196   2.535 -22.928  0.00  0.00    +0.012 C 
ATOM     14  C   UNL     1       1.297   4.021 -25.914  0.00  0.00    +0.077 C 
ATOM     15  O   UNL     1       0.035   3.170 -23.999  0.00  0.00    -0.199 OA
ATOM     16  O   UNL     1      -0.941   2.980 -23.349  0.00  0.00    -0.218 OA
ATOM     17  O   UNL     1      -5.151   4.839 -25.275  0.00  0.00    -0.250 OA
ATOM     18  C   UNL     1      -5.536   3.610 -22.977  0.00  0.00    +0.019 C 
ATOM     19  C   UNL     1      -2.118   3.194 -23.347  0.00  0.00    +0.173 C 
ATOM     20  C   UNL     1      -1.101   2.642 -22.699  0.00  0.00    +0.034 C 
ENDROOT
TORSDOF 0
ENDMDL
MODEL 5
REMARK VINA RESULT:    -9.527      1.588      3.663
REMARK INTER + INTRA:          -9.527
REMARK INTER:                  -9.527
REMARK INTRA:                   0.000
REMARK UNBOUND:                 0.000
REMARK  Name = C[C@@H]1CC[C@@H]2[C@@H](C)C(=O)O[C@H]3O[C@]4(C)CC[C@@H]1[C@]32OO4    ZINC000100858734
REMARK  3 active torsions:
REMARK  status: ('A' for Active; 'I' for Inactive)
REMARK    1  A    between atoms: C_1  and  C_2
REMARK    2  A    between atoms: C_6  and  C_7
REMARK    3  A    between atoms: C_13  and  C_14
REMARK                            x       y       z     vdW  Elec       q    Type
REMARK                         _______ _______ _______ _____ _____    ______ ____
ROOT
ATOM      1  C   UNL     1      -5.167   3.389 -25.481  0.00  0.00    +0.008 C 
ATOM      2  C   UNL     1      -3.871   3.460 -25.301  0.00  0.00    -0.008 C 
ATOM      3  C   UNL     1      -3.067   3.490 -26.334  0.00  0.00    +0.004 C 
ATOM      4  C   UNL     1      -1.755   3.562 -26.152  0.00  0.00    +0.008 C 
ATOM      5  C   UNL     1      -1.263   3.603 -24.939  0.00  0.00    +0.044 C 
ATOM      6  C   UNL     1       0.032   3.675 -24.758  0.00  0.00    +0.101 C 
ATOM      7  C   UNL     1       0.538   3.716 -23.543  0.00  0.00    +0.313 C 
ATOM      8  O   UNL     1      -0.283   3.685 -22.496  0.00  0.00    -0.432 OA
ATOM      9  C   UNL     1      -1.578   3.614 -22.675  0.00  0.00    +0.349 C 
ATOM     10  O   UNL     1      -2.100   3.601 -21.474  0.00  0.00    -0.305 OA
ATOM     11  C   UNL     1      -3.385   3.536 -21.152  0.00  0.00    +0.204 C 
ATOM     12  C   UNL     1      -4.416   3.472 -21.957  0.00  0.00    +0.068 C 
ATOM     13  C   UNL     1      -4.426   3.455 -23.281  0.00  0.00    +0.012 C 
ATOM     14  C   UNL     1      -3.659   3.538 -19.855  0.00  0.00    +0.077 C 
ATOM     15  O   UNL     1      -3.644   3.509 -22.301  0.00  0.00    -0.199 OA
ATOM     16  O   UNL     1      -3.140   3.522 -23.376  0.00  0.00    -0.218 OA
ATOM     17  O   UNL     1       1.842   3.788 -23.366  0.00  0.00    -0.250 OA
ATOM     18  C   UNL     1       0.830   3.704 -25.797  0.00  0.00    +0.019 C 
ATOM     19  C   UNL     1      -2.068   3.573 -23.905  0.00  0.00    +0.173 C 
ATOM     20  C   UNL     1      -3.379   3.501 -24.087  0.00  0.00    +0.034 C 
ENDROOT
TORSDOF 0
ENDMDL
MODEL 6
REMARK VINA RESULT:    -9.347      1.568      3.652
REMARK INTER + INTRA:          -9.347
REMARK INTER:                  -9.347
REMARK INTRA:                   0.000
REMARK UNBOUND:                 0.000
REMARK  Name = C[C@@H]1CC[C@@H]2[C@@H](C)C(=O)O[C@H]3O[C@]4(C)CC[C@@H]1[C@]32OO4    ZINC000100858734
REMARK  3 active torsions:
REMARK  status: ('A' for Active; 'I' for Inactive)
REMARK    1  A    between atoms: C_1  and  C_2
REMARK    2  A    between atoms: C_6  and  C_7
REMARK    3  A    between atoms: C_13  and  C_14
REMARK                            x       y       z     vdW  Elec       q    Type
REMARK                         _______ _______ _______ _____ _____    ______ ____
ROOT
ATOM      1  C   UNL     1      -2.776   4.099 -25.695  0.00  0.00    +0.008 C 
ATOM      2  C   UNL     1      -1.783   3.604 -24.999  0.00  0.00    -0.008 C 
ATOM      3  C   UNL     1      -0.576   3.572 -25.510  0.00  0.00    +0.004 C 
ATOM      4  C   UNL     1       0.429   3.070 -24.806  0.00  0.00    +0.008 C 
ATOM      5  C   UNL     1       0.217   2.606 -23.599  0.00  0.00    +0.044 C 
ATOM      6  C   UNL     1       1.210   2.110 -22.904  0.00  0.00    +0.101 C 
ATOM      7  C   UNL     1       1.009   1.641 -21.690  0.00  0.00    +0.313 C 
ATOM      8  O   UNL     1      -0.218   1.675 -21.175  0.00  0.00    -0.432 OA
ATOM      9  C   UNL     1      -1.212   2.170 -21.870  0.00  0.00    +0.349 C 
ATOM     10  O   UNL     1      -2.267   2.063 -21.102  0.00  0.00    -0.305 OA
ATOM     11  C   UNL     1      -3.509   2.434 -21.380  0.00  0.00    +0.204 C 
ATOM     12  C   UNL     1      -3.960   2.988 -22.478  0.00  0.00    +0.068 C 
ATOM     13  C   UNL     1      -3.287   3.311 -23.572  0.00  0.00    +0.012 C 
ATOM     14  C   UNL     1      -4.406   2.217 -20.428  0.00  0.00    +0.077 C 
ATOM     15  O   UNL     1      -3.135   2.801 -22.435  0.00  0.00    -0.199 OA
ATOM     16  O   UNL     1      -2.160   2.885 -23.107  0.00  0.00    -0.218 OA
ATOM     17  O   UNL     1       2.011   1.143 -20.994  0.00  0.00    -0.250 OA
ATOM     18  C   UNL     1       2.413   2.082 -23.421  0.00  0.00    +0.019 C 
ATOM     19  C   UNL     1      -0.989   2.638 -23.089  0.00  0.00    +0.173 C 
ATOM     20  C   UNL     1      -1.995   3.139 -23.793  0.00  0.00    +0.034 C 
ENDROOT
TORSDOF 0
ENDMDL
MODEL 7
REMARK VINA RESULT:    -9.148      1.807      5.118
REMARK INTER + INTRA:          -9.148
REMARK INTER:                  -9.148
REMARK INTRA:                   0.000
REMARK UNBOUND:                 0.000
REMARK  Name = C[C@@H]1CC[C@@H]2[C@@H](C)C(=O)O[C@H]3O[C@]4(C)CC[C@@H]1[C@]32OO4    ZINC000100858734
REMARK  3 active torsions:
REMARK  status: ('A' for Active; 'I' for Inactive)
REMARK    1  A    between atoms: C_1  and  C_2
REMARK    2  A    between atoms: C_6  and  C_7
REMARK    3  A    between atoms: C_13  and  C_14
REMARK                            x       y       z     vdW  Elec       q    Type
REMARK                         _______ _______ _______ _____ _____    ______ ____
ROOT
ATOM      1  C   UNL     1       0.792   3.548 -25.858  0.00  0.00    +0.008 C 
ATOM      2  C   UNL     1      -0.256   3.411 -25.086  0.00  0.00    -0.008 C 
ATOM      3  C   UNL     1      -1.439   3.776 -25.515  0.00  0.00    +0.004 C 
ATOM      4  C   UNL     1      -2.501   3.637 -24.733  0.00  0.00    +0.008 C 
ATOM      5  C   UNL     1      -2.368   3.136 -23.530  0.00  0.00    +0.044 C 
ATOM      6  C   UNL     1      -3.416   2.999 -22.757  0.00  0.00    +0.101 C 
ATOM      7  C   UNL     1      -3.295   2.496 -21.546  0.00  0.00    +0.313 C 
ATOM      8  O   UNL     1      -2.091   2.126 -21.114  0.00  0.00    -0.432 OA
ATOM      9  C   UNL     1      -1.043   2.263 -21.886  0.00  0.00    +0.349 C 
ATOM     10  O   UNL     1      -0.029   1.817 -21.186  0.00  0.00    -0.305 OA
ATOM     11  C   UNL     1       1.243   1.756 -21.555  0.00  0.00    +0.204 C 
ATOM     12  C   UNL     1       1.771   2.125 -22.696  0.00  0.00    +0.068 C 
ATOM     13  C   UNL     1       1.165   2.646 -23.752  0.00  0.00    +0.012 C 
ATOM     14  C   UNL     1       2.084   1.261 -20.658  0.00  0.00    +0.077 C 
ATOM     15  O   UNL     1       0.936   2.221 -22.593  0.00  0.00    -0.199 OA
ATOM     16  O   UNL     1      -0.003   2.618 -23.202  0.00  0.00    -0.218 OA
ATOM     17  O   UNL     1      -4.353   2.360 -20.772  0.00  0.00    -0.250 OA
ATOM     18  C   UNL     1      -4.596   3.366 -23.194  0.00  0.00    +0.019 C 
ATOM     19  C   UNL     1      -1.185   2.771 -23.100  0.00  0.00    +0.173 C 
ATOM     20  C   UNL     1      -0.123   2.909 -23.883  0.00  0.00    +0.034 C 
ENDROOT
TORSDOF 0
ENDMDL
MODEL 8
REMARK VINA RESULT:    -9.059      1.233      3.603
REMARK INTER + INTRA:          -9.059
REMARK INTER:                  -9.059
REMARK INTRA:                   0.000
REMARK UNBOUND:                 0.000
REMARK  Name = C[C@@H]1CC[C@@H]2[C@@H](C)C(=O)O[C@H]3O[C@]4(C)CC[C@@H]1[C@]32OO4    ZINC000100858734
REMARK  3 active torsions:
REMARK  status: ('A' for Active; 'I' for Inactive)
REMARK    1  A    between atoms: C_1  and  C_2
REMARK    2  A    between atoms: C_6  and  C_7
REMARK    3  A    between atoms: C_13  and  C_14
REMARK                            x       y       z     vdW  Elec       q    Type
REMARK                         _______ _______ _______ _____ _____    ______ ____
ROOT
ATOM      1  C   UNL     1       0.790   2.730 -23.539  0.00  0.00    +0.008 C 
ATOM      2  C   UNL     1      -0.415   2.785 -23.027  0.00  0.00    -0.008 C 
ATOM      3  C   UNL     1      -0.588   2.615 -21.740  0.00  0.00    +0.004 C 
ATOM      4  C   UNL     1      -1.807   2.671 -21.222  0.00  0.00    +0.008 C 
ATOM      5  C   UNL     1      -2.839   2.896 -21.997  0.00  0.00    +0.044 C 
ATOM      6  C   UNL     1      -4.044   2.951 -21.485  0.00  0.00    +0.101 C 
ATOM      7  C   UNL     1      -5.089   3.177 -22.254  0.00  0.00    +0.313 C 
ATOM      8  O   UNL     1      -4.908   3.349 -23.562  0.00  0.00    -0.432 OA
ATOM      9  C   UNL     1      -3.704   3.294 -24.074  0.00  0.00    +0.349 C 
ATOM     10  O   UNL     1      -3.858   3.499 -25.358  0.00  0.00    -0.305 OA
ATOM     11  C   UNL     1      -2.915   3.534 -26.289  0.00  0.00    +0.204 C 
ATOM     12  C   UNL     1      -1.624   3.372 -26.137  0.00  0.00    +0.068 C 
ATOM     13  C   UNL     1      -0.951   3.136 -25.021  0.00  0.00    +0.012 C 
ATOM     14  C   UNL     1      -3.330   3.760 -27.528  0.00  0.00    +0.077 C 
ATOM     15  O   UNL     1      -2.115   3.324 -25.449  0.00  0.00    -0.199 OA
ATOM     16  O   UNL     1      -2.009   3.141 -24.281  0.00  0.00    -0.218 OA
ATOM     17  O   UNL     1      -6.299   3.231 -21.735  0.00  0.00    -0.250 OA
ATOM     18  C   UNL     1      -4.209   2.780 -20.196  0.00  0.00    +0.019 C 
ATOM     19  C   UNL     1      -2.666   3.066 -23.284  0.00  0.00    +0.173 C 
ATOM     20  C   UNL     1      -1.447   3.010 -23.802  0.00  0.00    +0.034 C 
ENDROOT
TORSDOF 0
ENDMDL
MODEL 9
REMARK VINA RESULT:    -8.828      1.227      1.961
REMARK INTER + INTRA:          -8.828
REMARK INTER:                  -8.828
REMARK INTRA:                   0.000
REMARK UNBOUND:                 0.000
REMARK  Name = C[C@@H]1CC[C@@H]2[C@@H](C)C(=O)O[C@H]3O[C@]4(C)CC[C@@H]1[C@]32OO4    ZINC000100858734
REMARK  3 active torsions:
REMARK  status: ('A' for Active; 'I' for Inactive)
REMARK    1  A    between atoms: C_1  and  C_2
REMARK    2  A    between atoms: C_6  and  C_7
REMARK    3  A    between atoms: C_13  and  C_14
REMARK                            x       y       z     vdW  Elec       q    Type
REMARK                         _______ _______ _______ _____ _____    ______ ____
ROOT
ATOM      1  C   UNL     1      -3.534   2.584 -20.642  0.00  0.00    +0.008 C 
ATOM      2  C   UNL     1      -2.481   2.604 -21.420  0.00  0.00    -0.008 C 
ATOM      3  C   UNL     1      -1.314   2.231 -20.954  0.00  0.00    +0.004 C 
ATOM      4  C   UNL     1      -0.248   2.252 -21.742  0.00  0.00    +0.008 C 
ATOM      5  C   UNL     1      -0.360   2.646 -22.986  0.00  0.00    +0.044 C 
ATOM      6  C   UNL     1       0.693   2.667 -23.765  0.00  0.00    +0.101 C 
ATOM      7  C   UNL     1       0.593   3.060 -25.018  0.00  0.00    +0.313 C 
ATOM      8  O   UNL     1      -0.594   3.438 -25.486  0.00  0.00    -0.432 OA
ATOM      9  C   UNL     1      -1.648   3.418 -24.709  0.00  0.00    +0.349 C 
ATOM     10  O   UNL     1      -2.641   3.838 -25.451  0.00  0.00    -0.305 OA
ATOM     11  C   UNL     1      -3.909   3.986 -25.094  0.00  0.00    +0.204 C 
ATOM     12  C   UNL     1      -4.453   3.747 -23.926  0.00  0.00    +0.068 C 
ATOM     13  C   UNL     1      -3.869   3.302 -22.824  0.00  0.00    +0.012 C 
ATOM     14  C   UNL     1      -4.730   4.432 -26.036  0.00  0.00    +0.077 C 
ATOM     15  O   UNL     1      -3.623   3.607 -24.016  0.00  0.00    -0.199 OA
ATOM     16  O   UNL     1      -2.701   3.230 -23.370  0.00  0.00    -0.218 OA
ATOM     17  O   UNL     1       1.655   3.080 -25.797  0.00  0.00    -0.250 OA
ATOM     18  C   UNL     1       1.856   2.292 -23.291  0.00  0.00    +0.019 C 
ATOM     19  C   UNL     1      -1.526   3.019 -23.452  0.00  0.00    +0.173 C 
ATOM     20  C   UNL     1      -2.593   2.998 -22.665  0.00  0.00    +0.034 C 
ENDROOT
TORSDOF 0
ENDMDL
