MODEL 1
REMARK VINA RESULT:    -8.793      0.000      0.000
REMARK INTER + INTRA:         -11.466
REMARK INTER:                 -10.648
REMARK INTRA:                  -0.818
REMARK UNBOUND:                -0.103
REMARK  Name = ZINC000000338302
REMARK  8 active torsions:
REMARK  status: ('A' for Active; 'I' for Inactive)
REMARK    1  A    between atoms: C_1  and  O_2
REMARK    2  A    between atoms: O_2  and  C_3
REMARK    3  A    between atoms: C_6  and  C_7
REMARK    4  A    between atoms: C_7  and  C_8
REMARK    5  A    between atoms: C_7  and  C_9
REMARK    6  A    between atoms: C_9  and  C_11
REMARK    7  A    between atoms: C_14  and  O_15
REMARK    8  A    between atoms: C_17  and  O_18
REMARK                            x       y       z     vdW  Elec       q    Type
REMARK                         _______ _______ _______ _____ _____    ______ ____
ROOT
ATOM      1  C   UNL     1      -1.721   3.714 -24.442  0.00  0.00    +0.174 C 
ATOM      2  O   UNL     1      -1.581   3.326 -25.675  0.00  0.00    -0.291 OA
ENDROOT
BRANCH   1   3
ATOM      3  C   UNL     1      -2.884   3.643 -23.866  0.00  0.00    +0.060 A 
ATOM      4  C   UNL     1      -3.013   3.013 -22.736  0.00  0.00    +0.018 A 
ATOM      5  C   UNL     1      -4.176   2.942 -22.160  0.00  0.00    +0.046 A 
ATOM      6  C   UNL     1      -5.211   3.501 -22.714  0.00  0.00    +0.120 A 
ATOM      7  C   UNL     1      -5.082   4.131 -23.844  0.00  0.00    +0.091 A 
ATOM      8  C   UNL     1      -3.919   4.202 -24.420  0.00  0.00    +0.131 A 
BRANCH   6   9
ATOM      9  O   UNL     1      -6.374   3.430 -22.138  0.00  0.00    -0.507 OA
ATOM     10  H   UNL     1      -7.155   3.547 -22.643  0.00  0.00    +0.292 HD
ENDBRANCH   6   9
BRANCH   8  11
ATOM     11  O   UNL     1      -3.791   4.832 -25.550  0.00  0.00    -0.506 OA
ATOM     12  H   UNL     1      -4.541   4.975 -26.094  0.00  0.00    +0.292 HD
ENDBRANCH   8  11
ENDBRANCH   1   3
BRANCH   1  13
ATOM     13  C   UNL     1      -0.697   4.173 -23.785  0.00  0.00    +0.087 C 
ATOM     14  C   UNL     1      -0.737   5.366 -23.269  0.00  0.00    +0.021 C 
BRANCH  13  18
ATOM     15  C   UNL     1       2.495   1.972 -23.363  0.00  0.00    +0.120 A 
ATOM     16  C   UNL     1       2.467   2.912 -24.261  0.00  0.00    +0.046 A 
ATOM     17  C   UNL     1       1.404   3.646 -24.402  0.00  0.00    +0.008 A 
ATOM     18  C   UNL     1       0.366   3.440 -23.644  0.00  0.00    -0.037 A 
ATOM     19  C   UNL     1       0.394   2.500 -22.747  0.00  0.00    +0.008 A 
ATOM     20  C   UNL     1       1.458   1.766 -22.606  0.00  0.00    +0.046 A 
BRANCH  15  22
ATOM     21  C   UNL     1       3.794   0.647 -22.089  0.00  0.00    +0.277 C 
ATOM     22  O   UNL     1       3.559   1.239 -23.222  0.00  0.00    -0.495 OA
ENDBRANCH  15  22
ENDBRANCH  13  18
ENDBRANCH   1  13
TORSDOF 6
ENDMDL
MODEL 2
REMARK VINA RESULT:    -8.485      1.596      6.811
REMARK INTER + INTRA:         -11.068
REMARK INTER:                 -10.137
REMARK INTRA:                  -0.931
REMARK UNBOUND:                -0.103
REMARK  Name = ZINC000000338302
REMARK  8 active torsions:
REMARK  status: ('A' for Active; 'I' for Inactive)
REMARK    1  A    between atoms: C_1  and  O_2
REMARK    2  A    between atoms: O_2  and  C_3
REMARK    3  A    between atoms: C_6  and  C_7
REMARK    4  A    between atoms: C_7  and  C_8
REMARK    5  A    between atoms: C_7  and  C_9
REMARK    6  A    between atoms: C_9  and  C_11
REMARK    7  A    between atoms: C_14  and  O_15
REMARK    8  A    between atoms: C_17  and  O_18
REMARK                            x       y       z     vdW  Elec       q    Type
REMARK                         _______ _______ _______ _____ _____    ______ ____
ROOT
ATOM      1  C   UNL     1       2.138   2.171 -23.644  0.00  0.00    +0.174 C 
ATOM      2  O   UNL     1       1.968   1.502 -24.745  0.00  0.00    -0.291 OA
ENDROOT
BRANCH   1   3
ATOM      3  C   UNL     1       2.978   1.745 -22.748  0.00  0.00    +0.060 A 
ATOM      4  C   UNL     1       2.541   1.299 -21.608  0.00  0.00    +0.018 A 
ATOM      5  C   UNL     1       3.381   0.872 -20.711  0.00  0.00    +0.046 A 
ATOM      6  C   UNL     1       4.658   0.893 -20.955  0.00  0.00    +0.120 A 
ATOM      7  C   UNL     1       5.094   1.339 -22.096  0.00  0.00    +0.091 A 
ATOM      8  C   UNL     1       4.255   1.765 -22.992  0.00  0.00    +0.131 A 
BRANCH   6   9
ATOM      9  O   UNL     1       5.497   0.466 -20.059  0.00  0.00    -0.507 OA
ATOM     10  H   UNL     1       5.417   0.748 -19.169  0.00  0.00    +0.292 HD
ENDBRANCH   6   9
BRANCH   8  11
ATOM     11  O   UNL     1       4.692   2.212 -24.132  0.00  0.00    -0.506 OA
ATOM     12  H   UNL     1       4.937   3.112 -24.219  0.00  0.00    +0.292 HD
ENDBRANCH   8  11
ENDBRANCH   1   3
BRANCH   1  13
ATOM     13  C   UNL     1       1.469   3.267 -23.438  0.00  0.00    +0.087 C 
ATOM     14  C   UNL     1       2.098   4.388 -23.247  0.00  0.00    +0.021 C 
BRANCH  13  18
ATOM     15  C   UNL     1      -2.431   3.189 -23.397  0.00  0.00    +0.120 A 
ATOM     16  C   UNL     1      -1.759   2.627 -22.436  0.00  0.00    +0.046 A 
ATOM     17  C   UNL     1      -0.459   2.652 -22.450  0.00  0.00    +0.008 A 
ATOM     18  C   UNL     1       0.169   3.241 -23.425  0.00  0.00    -0.037 A 
ATOM     19  C   UNL     1      -0.503   3.803 -24.385  0.00  0.00    +0.008 A 
ATOM     20  C   UNL     1      -1.802   3.777 -24.372  0.00  0.00    +0.046 A 
BRANCH  15  22
ATOM     21  C   UNL     1      -4.372   3.347 -22.268  0.00  0.00    +0.277 C 
ATOM     22  O   UNL     1      -3.730   3.163 -23.383  0.00  0.00    -0.495 OA
ENDBRANCH  15  22
ENDBRANCH  13  18
ENDBRANCH   1  13
TORSDOF 6
ENDMDL
MODEL 3
REMARK VINA RESULT:    -8.483      1.612      6.739
REMARK INTER + INTRA:         -11.066
REMARK INTER:                 -10.138
REMARK INTRA:                  -0.928
REMARK UNBOUND:                -0.103
REMARK  Name = ZINC000000338302
REMARK  8 active torsions:
REMARK  status: ('A' for Active; 'I' for Inactive)
REMARK    1  A    between atoms: C_1  and  O_2
REMARK    2  A    between atoms: O_2  and  C_3
REMARK    3  A    between atoms: C_6  and  C_7
REMARK    4  A    between atoms: C_7  and  C_8
REMARK    5  A    between atoms: C_7  and  C_9
REMARK    6  A    between atoms: C_9  and  C_11
REMARK    7  A    between atoms: C_14  and  O_15
REMARK    8  A    between atoms: C_17  and  O_18
REMARK                            x       y       z     vdW  Elec       q    Type
REMARK                         _______ _______ _______ _____ _____    ______ ____
ROOT
ATOM      1  C   UNL     1       2.109   2.170 -23.640  0.00  0.00    +0.174 C 
ATOM      2  O   UNL     1       1.937   1.506 -24.744  0.00  0.00    -0.291 OA
ENDROOT
BRANCH   1   3
ATOM      3  C   UNL     1       2.956   1.744 -22.750  0.00  0.00    +0.060 A 
ATOM      4  C   UNL     1       2.527   1.300 -21.606  0.00  0.00    +0.018 A 
ATOM      5  C   UNL     1       3.374   0.873 -20.716  0.00  0.00    +0.046 A 
ATOM      6  C   UNL     1       4.648   0.891 -20.970  0.00  0.00    +0.120 A 
ATOM      7  C   UNL     1       5.076   1.335 -22.115  0.00  0.00    +0.091 A 
ATOM      8  C   UNL     1       4.230   1.761 -23.004  0.00  0.00    +0.131 A 
BRANCH   6   9
ATOM      9  O   UNL     1       5.494   0.464 -20.081  0.00  0.00    -0.507 OA
ATOM     10  H   UNL     1       6.010   1.076 -19.593  0.00  0.00    +0.292 HD
ENDBRANCH   6   9
BRANCH   8  11
ATOM     11  O   UNL     1       4.659   2.205 -24.148  0.00  0.00    -0.506 OA
ATOM     12  H   UNL     1       5.445   2.715 -24.188  0.00  0.00    +0.292 HD
ENDBRANCH   8  11
ENDBRANCH   1   3
BRANCH   1  13
ATOM     13  C   UNL     1       1.435   3.261 -23.426  0.00  0.00    +0.087 C 
ATOM     14  C   UNL     1       2.060   4.387 -23.245  0.00  0.00    +0.021 C 
BRANCH  13  18
ATOM     15  C   UNL     1      -2.463   3.157 -23.326  0.00  0.00    +0.120 A 
ATOM     16  C   UNL     1      -1.853   3.744 -24.313  0.00  0.00    +0.046 A 
ATOM     17  C   UNL     1      -0.554   3.779 -24.346  0.00  0.00    +0.008 A 
ATOM     18  C   UNL     1       0.136   3.226 -23.392  0.00  0.00    -0.037 A 
ATOM     19  C   UNL     1      -0.474   2.640 -22.405  0.00  0.00    +0.008 A 
ATOM     20  C   UNL     1      -1.772   2.605 -22.372  0.00  0.00    +0.046 A 
BRANCH  15  22
ATOM     21  C   UNL     1      -4.389   3.368 -22.181  0.00  0.00    +0.277 C 
ATOM     22  O   UNL     1      -3.761   3.122 -23.293  0.00  0.00    -0.495 OA
ENDBRANCH  15  22
ENDBRANCH  13  18
ENDBRANCH   1  13
TORSDOF 6
ENDMDL
MODEL 4
REMARK VINA RESULT:    -8.481      1.531      2.960
REMARK INTER + INTRA:         -11.063
REMARK INTER:                 -10.902
REMARK INTRA:                  -0.162
REMARK UNBOUND:                -0.103
REMARK  Name = ZINC000000338302
REMARK  8 active torsions:
REMARK  status: ('A' for Active; 'I' for Inactive)
REMARK    1  A    between atoms: C_1  and  O_2
REMARK    2  A    between atoms: O_2  and  C_3
REMARK    3  A    between atoms: C_6  and  C_7
REMARK    4  A    between atoms: C_7  and  C_8
REMARK    5  A    between atoms: C_7  and  C_9
REMARK    6  A    between atoms: C_9  and  C_11
REMARK    7  A    between atoms: C_14  and  O_15
REMARK    8  A    between atoms: C_17  and  O_18
REMARK                            x       y       z     vdW  Elec       q    Type
REMARK                         _______ _______ _______ _____ _____    ______ ____
ROOT
ATOM      1  C   UNL     1      -3.375   2.998 -22.386  0.00  0.00    +0.174 C 
ATOM      2  O   UNL     1      -4.282   2.315 -21.752  0.00  0.00    -0.291 OA
ENDROOT
BRANCH   1   3
ATOM      3  C   UNL     1      -3.475   3.176 -23.670  0.00  0.00    +0.060 A 
ATOM      4  C   UNL     1      -2.516   2.786 -24.457  0.00  0.00    +0.018 A 
ATOM      5  C   UNL     1      -2.616   2.964 -25.741  0.00  0.00    +0.046 A 
ATOM      6  C   UNL     1      -3.675   3.531 -26.238  0.00  0.00    +0.120 A 
ATOM      7  C   UNL     1      -4.633   3.920 -25.451  0.00  0.00    +0.091 A 
ATOM      8  C   UNL     1      -4.534   3.743 -24.168  0.00  0.00    +0.131 A 
BRANCH   6   9
ATOM      9  O   UNL     1      -3.774   3.708 -27.522  0.00  0.00    -0.507 OA
ATOM     10  H   UNL     1      -4.246   4.445 -27.858  0.00  0.00    +0.292 HD
ENDBRANCH   6   9
BRANCH   8  11
ATOM     11  O   UNL     1      -5.493   4.133 -23.382  0.00  0.00    -0.506 OA
ATOM     12  H   UNL     1      -5.760   5.031 -23.378  0.00  0.00    +0.292 HD
ENDBRANCH   8  11
ENDBRANCH   1   3
BRANCH   1  13
ATOM     13  C   UNL     1      -2.369   3.504 -21.736  0.00  0.00    +0.087 C 
ATOM     14  C   UNL     1      -2.565   4.453 -20.870  0.00  0.00    +0.021 C 
BRANCH  13  18
ATOM     15  C   UNL     1       1.239   2.171 -22.387  0.00  0.00    +0.120 A 
ATOM     16  C   UNL     1       0.399   1.463 -21.692  0.00  0.00    +0.046 A 
ATOM     17  C   UNL     1      -0.803   1.907 -21.475  0.00  0.00    +0.008 A 
ATOM     18  C   UNL     1      -1.167   3.060 -21.953  0.00  0.00    -0.037 A 
ATOM     19  C   UNL     1      -0.327   3.769 -22.648  0.00  0.00    +0.008 A 
ATOM     20  C   UNL     1       0.875   3.325 -22.865  0.00  0.00    +0.046 A 
BRANCH  15  22
ATOM     21  C   UNL     1       2.749   0.506 -22.286  0.00  0.00    +0.277 C 
ATOM     22  O   UNL     1       2.441   1.728 -22.604  0.00  0.00    -0.495 OA
ENDBRANCH  15  22
ENDBRANCH  13  18
ENDBRANCH   1  13
TORSDOF 6
ENDMDL
MODEL 5
REMARK VINA RESULT:    -8.366      1.997      6.517
REMARK INTER + INTRA:         -10.915
REMARK INTER:                 -10.197
REMARK INTRA:                  -0.718
REMARK UNBOUND:                -0.103
REMARK  Name = ZINC000000338302
REMARK  8 active torsions:
REMARK  status: ('A' for Active; 'I' for Inactive)
REMARK    1  A    between atoms: C_1  and  O_2
REMARK    2  A    between atoms: O_2  and  C_3
REMARK    3  A    between atoms: C_6  and  C_7
REMARK    4  A    between atoms: C_7  and  C_8
REMARK    5  A    between atoms: C_7  and  C_9
REMARK    6  A    between atoms: C_9  and  C_11
REMARK    7  A    between atoms: C_14  and  O_15
REMARK    8  A    between atoms: C_17  and  O_18
REMARK                            x       y       z     vdW  Elec       q    Type
REMARK                         _______ _______ _______ _____ _____    ______ ____
ROOT
ATOM      1  C   UNL     1       1.248   2.487 -23.552  0.00  0.00    +0.174 C 
ATOM      2  O   UNL     1       1.252   1.860 -24.691  0.00  0.00    -0.291 OA
ENDROOT
BRANCH   1   3
ATOM      3  C   UNL     1       2.116   3.428 -23.325  0.00  0.00    +0.060 A 
ATOM      4  C   UNL     1       1.725   4.664 -23.231  0.00  0.00    +0.018 A 
ATOM      5  C   UNL     1       2.594   5.605 -23.004  0.00  0.00    +0.046 A 
ATOM      6  C   UNL     1       3.853   5.309 -22.871  0.00  0.00    +0.120 A 
ATOM      7  C   UNL     1       4.243   4.073 -22.966  0.00  0.00    +0.091 A 
ATOM      8  C   UNL     1       3.375   3.132 -23.193  0.00  0.00    +0.131 A 
BRANCH   6   9
ATOM      9  O   UNL     1       4.721   6.250 -22.645  0.00  0.00    -0.507 OA
ATOM     10  H   UNL     1       5.636   6.051 -22.638  0.00  0.00    +0.292 HD
ENDBRANCH   6   9
BRANCH   8  11
ATOM     11  O   UNL     1       3.766   1.896 -23.287  0.00  0.00    -0.506 OA
ATOM     12  H   UNL     1       4.191   1.483 -22.561  0.00  0.00    +0.292 HD
ENDBRANCH   8  11
ENDBRANCH   1   3
BRANCH   1  13
ATOM     13  C   UNL     1       0.376   2.174 -22.641  0.00  0.00    +0.087 C 
ATOM     14  C   UNL     1       0.739   1.476 -21.606  0.00  0.00    +0.021 C 
BRANCH  13  18
ATOM     15  C   UNL     1      -3.331   3.329 -23.012  0.00  0.00    +0.120 A 
ATOM     16  C   UNL     1      -2.646   2.993 -24.065  0.00  0.00    +0.046 A 
ATOM     17  C   UNL     1      -1.411   2.608 -23.941  0.00  0.00    +0.008 A 
ATOM     18  C   UNL     1      -0.859   2.559 -22.764  0.00  0.00    -0.037 A 
ATOM     19  C   UNL     1      -1.545   2.895 -21.712  0.00  0.00    +0.008 A 
ATOM     20  C   UNL     1      -2.780   3.280 -21.835  0.00  0.00    +0.046 A 
BRANCH  15  22
ATOM     21  C   UNL     1      -5.451   3.349 -22.256  0.00  0.00    +0.277 C 
ATOM     22  O   UNL     1      -4.566   3.714 -23.135  0.00  0.00    -0.495 OA
ENDBRANCH  15  22
ENDBRANCH  13  18
ENDBRANCH   1  13
TORSDOF 6
ENDMDL
MODEL 6
REMARK VINA RESULT:    -8.270      1.654      2.359
REMARK INTER + INTRA:         -10.791
REMARK INTER:                 -10.088
REMARK INTRA:                  -0.703
REMARK UNBOUND:                -0.103
REMARK  Name = ZINC000000338302
REMARK  8 active torsions:
REMARK  status: ('A' for Active; 'I' for Inactive)
REMARK    1  A    between atoms: C_1  and  O_2
REMARK    2  A    between atoms: O_2  and  C_3
REMARK    3  A    between atoms: C_6  and  C_7
REMARK    4  A    between atoms: C_7  and  C_8
REMARK    5  A    between atoms: C_7  and  C_9
REMARK    6  A    between atoms: C_9  and  C_11
REMARK    7  A    between atoms: C_14  and  O_15
REMARK    8  A    between atoms: C_17  and  O_18
REMARK                            x       y       z     vdW  Elec       q    Type
REMARK                         _______ _______ _______ _____ _____    ______ ____
ROOT
ATOM      1  C   UNL     1      -1.483   4.348 -22.988  0.00  0.00    +0.174 C 
ATOM      2  O   UNL     1      -1.026   5.479 -22.539  0.00  0.00    -0.291 OA
ENDROOT
BRANCH   1   3
ATOM      3  C   UNL     1      -2.722   4.017 -22.773  0.00  0.00    +0.060 A 
ATOM      4  C   UNL     1      -3.559   3.952 -23.765  0.00  0.00    +0.018 A 
ATOM      5  C   UNL     1      -4.798   3.621 -23.550  0.00  0.00    +0.046 A 
ATOM      6  C   UNL     1      -5.199   3.355 -22.343  0.00  0.00    +0.120 A 
ATOM      7  C   UNL     1      -4.362   3.419 -21.351  0.00  0.00    +0.091 A 
ATOM      8  C   UNL     1      -3.123   3.750 -21.565  0.00  0.00    +0.131 A 
BRANCH   6   9
ATOM      9  O   UNL     1      -6.437   3.024 -22.129  0.00  0.00    -0.507 OA
ATOM     10  H   UNL     1      -6.855   2.389 -22.677  0.00  0.00    +0.292 HD
ENDBRANCH   6   9
BRANCH   8  11
ATOM     11  O   UNL     1      -2.287   3.814 -20.572  0.00  0.00    -0.506 OA
ATOM     12  H   UNL     1      -1.376   3.646 -20.716  0.00  0.00    +0.292 HD
ENDBRANCH   8  11
ENDBRANCH   1   3
BRANCH   1  13
ATOM     13  C   UNL     1      -0.702   3.548 -23.651  0.00  0.00    +0.087 C 
ATOM     14  C   UNL     1      -0.797   3.471 -24.945  0.00  0.00    +0.021 C 
BRANCH  13  18
ATOM     15  C   UNL     1       1.927   1.377 -21.757  0.00  0.00    +0.120 A 
ATOM     16  C   UNL     1       0.663   1.090 -21.670  0.00  0.00    +0.046 A 
ATOM     17  C   UNL     1      -0.214   1.813 -22.300  0.00  0.00    +0.008 A 
ATOM     18  C   UNL     1       0.174   2.825 -23.020  0.00  0.00    -0.037 A 
ATOM     19  C   UNL     1       1.439   3.112 -23.107  0.00  0.00    +0.008 A 
ATOM     20  C   UNL     1       2.316   2.389 -22.476  0.00  0.00    +0.046 A 
BRANCH  15  22
ATOM     21  C   UNL     1       4.040   0.636 -21.526  0.00  0.00    +0.277 C 
ATOM     22  O   UNL     1       2.804   0.654 -21.126  0.00  0.00    -0.495 OA
ENDBRANCH  15  22
ENDBRANCH  13  18
ENDBRANCH   1  13
TORSDOF 6
ENDMDL
MODEL 7
REMARK VINA RESULT:    -8.210      1.726      2.611
REMARK INTER + INTRA:         -10.713
REMARK INTER:                 -10.129
REMARK INTRA:                  -0.583
REMARK UNBOUND:                -0.103
REMARK  Name = ZINC000000338302
REMARK  8 active torsions:
REMARK  status: ('A' for Active; 'I' for Inactive)
REMARK    1  A    between atoms: C_1  and  O_2
REMARK    2  A    between atoms: O_2  and  C_3
REMARK    3  A    between atoms: C_6  and  C_7
REMARK    4  A    between atoms: C_7  and  C_8
REMARK    5  A    between atoms: C_7  and  C_9
REMARK    6  A    between atoms: C_9  and  C_11
REMARK    7  A    between atoms: C_14  and  O_15
REMARK    8  A    between atoms: C_17  and  O_18
REMARK                            x       y       z     vdW  Elec       q    Type
REMARK                         _______ _______ _______ _____ _____    ______ ____
ROOT
ATOM      1  C   UNL     1      -1.222   3.916 -22.904  0.00  0.00    +0.174 C 
ATOM      2  O   UNL     1      -1.166   5.084 -22.335  0.00  0.00    -0.291 OA
ENDROOT
BRANCH   1   3
ATOM      3  C   UNL     1      -2.064   3.704 -23.872  0.00  0.00    +0.060 A 
ATOM      4  C   UNL     1      -1.631   3.568 -25.091  0.00  0.00    +0.018 A 
ATOM      5  C   UNL     1      -2.472   3.357 -26.059  0.00  0.00    +0.046 A 
ATOM      6  C   UNL     1      -3.746   3.282 -25.809  0.00  0.00    +0.120 A 
ATOM      7  C   UNL     1      -4.178   3.418 -24.591  0.00  0.00    +0.091 A 
ATOM      8  C   UNL     1      -3.337   3.629 -23.622  0.00  0.00    +0.131 A 
BRANCH   6   9
ATOM      9  O   UNL     1      -4.586   3.070 -26.778  0.00  0.00    -0.507 OA
ATOM     10  H   UNL     1      -5.438   2.728 -26.592  0.00  0.00    +0.292 HD
ENDBRANCH   6   9
BRANCH   8  11
ATOM     11  O   UNL     1      -3.770   3.766 -22.404  0.00  0.00    -0.506 OA
ATOM     12  H   UNL     1      -4.650   4.048 -22.249  0.00  0.00    +0.292 HD
ENDBRANCH   8  11
ENDBRANCH   1   3
BRANCH   1  13
ATOM     13  C   UNL     1      -0.437   2.960 -22.504  0.00  0.00    +0.087 C 
ATOM     14  C   UNL     1      -0.904   2.006 -21.754  0.00  0.00    +0.021 C 
BRANCH  13  18
ATOM     15  C   UNL     1       3.318   2.953 -23.557  0.00  0.00    +0.120 A 
ATOM     16  C   UNL     1       2.620   4.046 -23.644  0.00  0.00    +0.046 A 
ATOM     17  C   UNL     1       1.369   4.049 -23.294  0.00  0.00    +0.008 A 
ATOM     18  C   UNL     1       0.814   2.957 -22.855  0.00  0.00    -0.037 A 
ATOM     19  C   UNL     1       1.512   1.864 -22.767  0.00  0.00    +0.008 A 
ATOM     20  C   UNL     1       2.763   1.862 -23.118  0.00  0.00    +0.046 A 
BRANCH  15  22
ATOM     21  C   UNL     1       5.481   3.337 -23.065  0.00  0.00    +0.277 C 
ATOM     22  O   UNL     1       4.570   2.951 -23.908  0.00  0.00    -0.495 OA
ENDBRANCH  15  22
ENDBRANCH  13  18
ENDBRANCH   1  13
TORSDOF 6
ENDMDL
MODEL 8
REMARK VINA RESULT:    -8.179      1.835      6.803
REMARK INTER + INTRA:         -10.673
REMARK INTER:                 -10.287
REMARK INTRA:                  -0.387
REMARK UNBOUND:                -0.103
REMARK  Name = ZINC000000338302
REMARK  8 active torsions:
REMARK  status: ('A' for Active; 'I' for Inactive)
REMARK    1  A    between atoms: C_1  and  O_2
REMARK    2  A    between atoms: O_2  and  C_3
REMARK    3  A    between atoms: C_6  and  C_7
REMARK    4  A    between atoms: C_7  and  C_8
REMARK    5  A    between atoms: C_7  and  C_9
REMARK    6  A    between atoms: C_9  and  C_11
REMARK    7  A    between atoms: C_14  and  O_15
REMARK    8  A    between atoms: C_17  and  O_18
REMARK                            x       y       z     vdW  Elec       q    Type
REMARK                         _______ _______ _______ _____ _____    ______ ____
ROOT
ATOM      1  C   UNL     1       1.467   1.875 -23.016  0.00  0.00    +0.174 C 
ATOM      2  O   UNL     1       1.568   1.866 -24.312  0.00  0.00    -0.291 OA
ENDROOT
BRANCH   1   3
ATOM      3  C   UNL     1       2.526   1.704 -22.281  0.00  0.00    +0.060 A 
ATOM      4  C   UNL     1       2.759   0.547 -21.737  0.00  0.00    +0.018 A 
ATOM      5  C   UNL     1       3.818   0.375 -21.002  0.00  0.00    +0.046 A 
ATOM      6  C   UNL     1       4.644   1.361 -20.812  0.00  0.00    +0.120 A 
ATOM      7  C   UNL     1       4.411   2.518 -21.357  0.00  0.00    +0.091 A 
ATOM      8  C   UNL     1       3.352   2.690 -22.091  0.00  0.00    +0.131 A 
BRANCH   6   9
ATOM      9  O   UNL     1       5.702   1.189 -20.077  0.00  0.00    -0.507 OA
ATOM     10  H   UNL     1       5.622   1.133 -19.145  0.00  0.00    +0.292 HD
ENDBRANCH   6   9
BRANCH   8  11
ATOM     11  O   UNL     1       3.120   3.847 -22.636  0.00  0.00    -0.506 OA
ATOM     12  H   UNL     1       2.509   3.917 -23.342  0.00  0.00    +0.292 HD
ENDBRANCH   8  11
ENDBRANCH   1   3
BRANCH   1  13
ATOM     13  C   UNL     1       0.309   2.055 -22.455  0.00  0.00    +0.087 C 
ATOM     14  C   UNL     1       0.053   1.511 -21.303  0.00  0.00    +0.021 C 
BRANCH  13  18
ATOM     15  C   UNL     1      -2.400   4.229 -24.229  0.00  0.00    +0.120 A 
ATOM     16  C   UNL     1      -2.505   2.933 -24.226  0.00  0.00    +0.046 A 
ATOM     17  C   UNL     1      -1.603   2.209 -23.635  0.00  0.00    +0.008 A 
ATOM     18  C   UNL     1      -0.594   2.780 -23.046  0.00  0.00    -0.037 A 
ATOM     19  C   UNL     1      -0.489   4.076 -23.049  0.00  0.00    +0.008 A 
ATOM     20  C   UNL     1      -1.391   4.800 -23.640  0.00  0.00    +0.046 A 
BRANCH  15  22
ATOM     21  C   UNL     1      -4.455   4.435 -25.125  0.00  0.00    +0.277 C 
ATOM     22  O   UNL     1      -3.303   4.953 -24.820  0.00  0.00    -0.495 OA
ENDBRANCH  15  22
ENDBRANCH  13  18
ENDBRANCH   1  13
TORSDOF 6
ENDMDL
MODEL 9
REMARK VINA RESULT:    -7.794      1.383      2.204
REMARK INTER + INTRA:         -10.175
REMARK INTER:                 -10.072
REMARK INTRA:                  -0.103
REMARK UNBOUND:                -0.103
REMARK  Name = ZINC000000338302
REMARK  8 active torsions:
REMARK  status: ('A' for Active; 'I' for Inactive)
REMARK    1  A    between atoms: C_1  and  O_2
REMARK    2  A    between atoms: O_2  and  C_3
REMARK    3  A    between atoms: C_6  and  C_7
REMARK    4  A    between atoms: C_7  and  C_8
REMARK    5  A    between atoms: C_7  and  C_9
REMARK    6  A    between atoms: C_9  and  C_11
REMARK    7  A    between atoms: C_14  and  O_15
REMARK    8  A    between atoms: C_17  and  O_18
REMARK                            x       y       z     vdW  Elec       q    Type
REMARK                         _______ _______ _______ _____ _____    ______ ____
ROOT
ATOM      1  C   UNL     1      -1.043   2.727 -23.500  0.00  0.00    +0.174 C 
ATOM      2  O   UNL     1      -0.885   1.458 -23.266  0.00  0.00    -0.291 OA
ENDROOT
BRANCH   1   3
ATOM      3  C   UNL     1      -2.125   3.151 -24.084  0.00  0.00    +0.060 A 
ATOM      4  C   UNL     1      -3.201   3.359 -23.385  0.00  0.00    +0.018 A 
ATOM      5  C   UNL     1      -4.283   3.782 -23.969  0.00  0.00    +0.046 A 
ATOM      6  C   UNL     1      -4.289   3.997 -25.251  0.00  0.00    +0.120 A 
ATOM      7  C   UNL     1      -3.212   3.789 -25.949  0.00  0.00    +0.091 A 
ATOM      8  C   UNL     1      -2.130   3.366 -25.365  0.00  0.00    +0.131 A 
BRANCH   6   9
ATOM      9  O   UNL     1      -5.370   4.420 -25.834  0.00  0.00    -0.507 OA
ATOM     10  H   UNL     1      -5.695   5.280 -25.652  0.00  0.00    +0.292 HD
ENDBRANCH   6   9
BRANCH   8  11
ATOM     11  O   UNL     1      -1.054   3.158 -26.064  0.00  0.00    -0.506 OA
ATOM     12  H   UNL     1      -0.984   3.507 -26.931  0.00  0.00    +0.292 HD
ENDBRANCH   8  11
ENDBRANCH   1   3
BRANCH   1  13
ATOM     13  C   UNL     1      -0.119   3.573 -23.150  0.00  0.00    +0.087 C 
ATOM     14  C   UNL     1      -0.439   4.794 -22.840  0.00  0.00    +0.021 C 
BRANCH  13  18
ATOM     15  C   UNL     1       3.612   2.444 -23.030  0.00  0.00    +0.120 A 
ATOM     16  C   UNL     1       2.802   2.117 -22.067  0.00  0.00    +0.046 A 
ATOM     17  C   UNL     1       1.559   2.493 -22.106  0.00  0.00    +0.008 A 
ATOM     18  C   UNL     1       1.124   3.197 -23.110  0.00  0.00    -0.037 A 
ATOM     19  C   UNL     1       1.934   3.524 -24.073  0.00  0.00    +0.008 A 
ATOM     20  C   UNL     1       3.177   3.148 -24.033  0.00  0.00    +0.046 A 
BRANCH  15  22
ATOM     21  C   UNL     1       5.214   1.090 -22.213  0.00  0.00    +0.277 C 
ATOM     22  O   UNL     1       4.856   2.068 -22.990  0.00  0.00    -0.495 OA
ENDBRANCH  15  22
ENDBRANCH  13  18
ENDBRANCH   1  13
TORSDOF 6
ENDMDL
