MODEL 1
REMARK VINA RESULT:   -10.545      0.000      0.000
REMARK INTER + INTRA:         -11.254
REMARK INTER:                 -11.128
REMARK INTRA:                  -0.127
REMARK UNBOUND:                -0.093
REMARK  Name = COc1ccc2c(c1)[C@]13CCN(C)[C@@H](C2)[C@H]1CCC(=O)C3                   ZINC000100393861
REMARK  3 active torsions:
REMARK  status: ('A' for Active; 'I' for Inactive)
REMARK    1  A    between atoms: C_1  and  O_2
REMARK    2  A    between atoms: O_2  and  C_3
REMARK    3  A    between atoms: N_12  and  C_13
REMARK                            x       y       z     vdW  Elec       q    Type
REMARK                         _______ _______ _______ _____ _____    ______ ____
ROOT
ATOM      1  C   UNL     1      -0.362   2.244 -22.968  0.00  0.00    +0.120 A 
ATOM      2  C   UNL     1      -0.597   2.298 -21.726  0.00  0.00    +0.046 A 
ATOM      3  C   UNL     1      -1.744   2.677 -21.338  0.00  0.00    +0.008 A 
ATOM      4  C   UNL     1      -2.754   3.040 -22.339  0.00  0.00    -0.038 A 
ATOM      5  C   UNL     1      -2.486   2.971 -23.361  0.00  0.00    -0.033 A 
ATOM      6  C   UNL     1      -2.981   3.155 -24.153  0.00  0.00    +0.015 C 
ATOM      7  C   UNL     1      -1.953   2.780 -22.869  0.00  0.00    +0.063 C 
ATOM      8  C   UNL     1      -2.443   2.917 -21.490  0.00  0.00    +0.132 C 
ATOM      9  N   UNL     1      -3.543   3.285 -21.307  0.00  0.00    +0.236 N 
ATOM     10  H   UNL     1      -4.491   3.610 -21.500  0.00  0.00    +0.203 HD
ATOM     11  C   UNL     1      -4.526   3.643 -22.501  0.00  0.00    +0.072 C 
ATOM     12  C   UNL     1      -3.404   3.209 -19.921  0.00  0.00    +0.190 C 
ATOM     13  C   UNL     1      -2.664   3.074 -25.366  0.00  0.00    +0.086 C 
ATOM     14  C   UNL     1      -3.534   3.387 -26.274  0.00  0.00    +0.134 C 
ATOM     15  O   UNL     1      -3.215   3.305 -27.517  0.00  0.00    -0.297 OA
ATOM     16  C   UNL     1      -4.743   3.789 -25.952  0.00  0.00    +0.075 C 
ATOM     17  C   UNL     1      -5.105   3.886 -24.712  0.00  0.00    +0.017 C 
ATOM     18  C   UNL     1      -4.294   3.592 -23.797  0.00  0.00    +0.049 C 
ATOM     19  C   UNL     1      -3.899   3.419 -21.945  0.00  0.00    +0.090 C 
ATOM     20  C   UNL     1      -1.295   2.577 -23.797  0.00  0.00    +0.050 A 
ENDROOT
BRANCH   1  22
ATOM     21  C   UNL     1       1.514   2.516 -24.517  0.00  0.00    +0.277 C 
ATOM     22  O   UNL     1       0.768   1.878 -23.726  0.00  0.00    -0.495 OA
ENDBRANCH   1  22
TORSDOF 1
ENDMDL
MODEL 2
REMARK VINA RESULT:   -10.431      2.056      3.807
REMARK INTER + INTRA:         -11.134
REMARK INTER:                 -11.038
REMARK INTRA:                  -0.096
REMARK UNBOUND:                -0.093
REMARK  Name = COc1ccc2c(c1)[C@]13CCN(C)[C@@H](C2)[C@H]1CCC(=O)C3                   ZINC000100393861
REMARK  3 active torsions:
REMARK  status: ('A' for Active; 'I' for Inactive)
REMARK    1  A    between atoms: C_1  and  O_2
REMARK    2  A    between atoms: O_2  and  C_3
REMARK    3  A    between atoms: N_12  and  C_13
REMARK                            x       y       z     vdW  Elec       q    Type
REMARK                         _______ _______ _______ _____ _____    ______ ____
ROOT
ATOM      1  C   UNL     1      -0.020   3.793 -24.149  0.00  0.00    +0.120 A 
ATOM      2  C   UNL     1      -0.246   3.733 -25.394  0.00  0.00    +0.046 A 
ATOM      3  C   UNL     1      -1.446   3.627 -25.791  0.00  0.00    +0.008 A 
ATOM      4  C   UNL     1      -2.527   3.578 -24.800  0.00  0.00    -0.038 A 
ATOM      5  C   UNL     1      -2.263   3.633 -23.777  0.00  0.00    -0.033 A 
ATOM      6  C   UNL     1      -2.798   3.619 -22.989  0.00  0.00    +0.015 C 
ATOM      7  C   UNL     1      -1.694   3.660 -24.263  0.00  0.00    +0.063 C 
ATOM      8  C   UNL     1      -2.185   3.576 -25.646  0.00  0.00    +0.132 C 
ATOM      9  N   UNL     1      -3.339   3.480 -25.839  0.00  0.00    +0.236 N 
ATOM     10  H   UNL     1      -4.341   3.410 -25.655  0.00  0.00    +0.203 HD
ATOM     11  C   UNL     1      -4.395   3.440 -24.654  0.00  0.00    +0.072 C 
ATOM     12  C   UNL     1      -3.167   3.447 -27.223  0.00  0.00    +0.190 C 
ATOM     13  C   UNL     1      -2.487   3.684 -21.774  0.00  0.00    +0.086 C 
ATOM     14  C   UNL     1      -3.418   3.643 -20.874  0.00  0.00    +0.134 C 
ATOM     15  O   UNL     1      -3.105   3.709 -19.629  0.00  0.00    -0.297 OA
ATOM     16  C   UNL     1      -4.685   3.534 -21.207  0.00  0.00    +0.075 C 
ATOM     17  C   UNL     1      -5.044   3.465 -22.450  0.00  0.00    +0.017 C 
ATOM     18  C   UNL     1      -4.174   3.501 -23.357  0.00  0.00    +0.049 C 
ATOM     19  C   UNL     1      -3.725   3.472 -25.205  0.00  0.00    +0.090 C 
ATOM     20  C   UNL     1      -1.017   3.744 -23.330  0.00  0.00    +0.050 A 
ENDROOT
BRANCH   1  22
ATOM     21  C   UNL     1       2.136   4.700 -23.430  0.00  0.00    +0.277 C 
ATOM     22  O   UNL     1       1.155   3.909 -23.382  0.00  0.00    -0.495 OA
ENDBRANCH   1  22
TORSDOF 1
ENDMDL
MODEL 3
REMARK VINA RESULT:   -10.003      0.956      3.858
REMARK INTER + INTRA:         -10.681
REMARK INTER:                 -10.557
REMARK INTRA:                  -0.123
REMARK UNBOUND:                -0.093
REMARK  Name = COc1ccc2c(c1)[C@]13CCN(C)[C@@H](C2)[C@H]1CCC(=O)C3                   ZINC000100393861
REMARK  3 active torsions:
REMARK  status: ('A' for Active; 'I' for Inactive)
REMARK    1  A    between atoms: C_1  and  O_2
REMARK    2  A    between atoms: O_2  and  C_3
REMARK    3  A    between atoms: N_12  and  C_13
REMARK                            x       y       z     vdW  Elec       q    Type
REMARK                         _______ _______ _______ _____ _____    ______ ____
ROOT
ATOM      1  C   UNL     1      -4.002   3.981 -25.174  0.00  0.00    +0.120 A 
ATOM      2  C   UNL     1      -5.090   3.959 -24.527  0.00  0.00    +0.046 A 
ATOM      3  C   UNL     1      -5.080   3.534 -23.332  0.00  0.00    +0.008 A 
ATOM      4  C   UNL     1      -3.813   3.083 -22.742  0.00  0.00    -0.038 A 
ATOM      5  C   UNL     1      -2.943   3.130 -23.343  0.00  0.00    -0.033 A 
ATOM      6  C   UNL     1      -2.041   2.893 -23.159  0.00  0.00    +0.015 C 
ATOM      7  C   UNL     1      -3.578   3.366 -23.667  0.00  0.00    +0.063 C 
ATOM      8  C   UNL     1      -4.710   3.253 -22.737  0.00  0.00    +0.132 C 
ATOM      9  N   UNL     1      -4.524   2.834 -21.656  0.00  0.00    +0.236 N 
ATOM     10  H   UNL     1      -4.035   2.454 -20.845  0.00  0.00    +0.203 HD
ATOM     11  C   UNL     1      -3.086   2.384 -21.159  0.00  0.00    +0.072 C 
ATOM     12  C   UNL     1      -5.868   2.967 -21.307  0.00  0.00    +0.190 C 
ATOM     13  C   UNL     1      -1.007   2.947 -23.871  0.00  0.00    +0.086 C 
ATOM     14  C   UNL     1       0.127   2.557 -23.380  0.00  0.00    +0.134 C 
ATOM     15  O   UNL     1       1.188   2.611 -24.105  0.00  0.00    -0.297 OA
ATOM     16  C   UNL     1       0.218   2.103 -22.149  0.00  0.00    +0.075 C 
ATOM     17  C   UNL     1      -0.825   2.033 -21.386  0.00  0.00    +0.017 C 
ATOM     18  C   UNL     1      -1.947   2.401 -21.821  0.00  0.00    +0.049 C 
ATOM     19  C   UNL     1      -3.811   2.659 -21.547  0.00  0.00    +0.090 C 
ATOM     20  C   UNL     1      -2.923   3.570 -24.597  0.00  0.00    +0.050 A 
ENDROOT
BRANCH   1  22
ATOM     21  C   UNL     1      -3.260   3.743 -27.494  0.00  0.00    +0.277 C 
ATOM     22  O   UNL     1      -3.660   4.378 -26.481  0.00  0.00    -0.495 OA
ENDBRANCH   1  22
TORSDOF 1
ENDMDL
MODEL 4
REMARK VINA RESULT:    -9.829      1.796      3.785
REMARK INTER + INTRA:         -10.496
REMARK INTER:                 -10.346
REMARK INTRA:                  -0.151
REMARK UNBOUND:                -0.093
REMARK  Name = COc1ccc2c(c1)[C@]13CCN(C)[C@@H](C2)[C@H]1CCC(=O)C3                   ZINC000100393861
REMARK  3 active torsions:
REMARK  status: ('A' for Active; 'I' for Inactive)
REMARK    1  A    between atoms: C_1  and  O_2
REMARK    2  A    between atoms: O_2  and  C_3
REMARK    3  A    between atoms: N_12  and  C_13
REMARK                            x       y       z     vdW  Elec       q    Type
REMARK                         _______ _______ _______ _____ _____    ______ ____
ROOT
ATOM      1  C   UNL     1      -1.727   3.460 -25.630  0.00  0.00    +0.120 A 
ATOM      2  C   UNL     1      -0.488   3.272 -25.452  0.00  0.00    +0.046 A 
ATOM      3  C   UNL     1      -0.074   3.001 -24.284  0.00  0.00    +0.008 A 
ATOM      4  C   UNL     1      -1.042   2.915 -23.183  0.00  0.00    -0.038 A 
ATOM      5  C   UNL     1      -2.062   3.085 -23.407  0.00  0.00    -0.033 A 
ATOM      6  C   UNL     1      -2.836   3.077 -22.853  0.00  0.00    +0.015 C 
ATOM      7  C   UNL     1      -1.588   3.134 -23.986  0.00  0.00    +0.063 C 
ATOM      8  C   UNL     1      -0.207   2.880 -23.551  0.00  0.00    +0.132 C 
ATOM      9  N   UNL     1       0.003   2.642 -22.420  0.00  0.00    +0.236 N 
ATOM     10  H   UNL     1      -0.165   2.476 -21.427  0.00  0.00    +0.203 HD
ATOM     11  C   UNL     1      -1.158   2.583 -21.338  0.00  0.00    +0.072 C 
ATOM     12  C   UNL     1       1.374   2.511 -22.638  0.00  0.00    +0.190 C 
ATOM     13  C   UNL     1      -4.047   3.278 -23.117  0.00  0.00    +0.086 C 
ATOM     14  C   UNL     1      -4.927   3.210 -22.167  0.00  0.00    +0.134 C 
ATOM     15  O   UNL     1      -6.168   3.415 -22.433  0.00  0.00    -0.297 OA
ATOM     16  C   UNL     1      -4.576   2.934 -20.930  0.00  0.00    +0.075 C 
ATOM     17  C   UNL     1      -3.337   2.721 -20.621  0.00  0.00    +0.017 C 
ATOM     18  C   UNL     1      -2.450   2.777 -21.510  0.00  0.00    +0.049 C 
ATOM     19  C   UNL     1      -0.622   2.644 -22.017  0.00  0.00    +0.090 C 
ATOM     20  C   UNL     1      -2.525   3.370 -24.619  0.00  0.00    +0.050 A 
ENDROOT
BRANCH   1  22
ATOM     21  C   UNL     1      -3.650   3.399 -27.143  0.00  0.00    +0.277 C 
ATOM     22  O   UNL     1      -2.506   3.770 -26.761  0.00  0.00    -0.495 OA
ENDBRANCH   1  22
TORSDOF 1
ENDMDL
MODEL 5
REMARK VINA RESULT:    -9.326      2.298      3.794
REMARK INTER + INTRA:          -9.964
REMARK INTER:                  -9.870
REMARK INTRA:                  -0.095
REMARK UNBOUND:                -0.093
REMARK  Name = COc1ccc2c(c1)[C@]13CCN(C)[C@@H](C2)[C@H]1CCC(=O)C3                   ZINC000100393861
REMARK  3 active torsions:
REMARK  status: ('A' for Active; 'I' for Inactive)
REMARK    1  A    between atoms: C_1  and  O_2
REMARK    2  A    between atoms: O_2  and  C_3
REMARK    3  A    between atoms: N_12  and  C_13
REMARK                            x       y       z     vdW  Elec       q    Type
REMARK                         _______ _______ _______ _____ _____    ______ ____
ROOT
ATOM      1  C   UNL     1       0.864   1.869 -21.924  0.00  0.00    +0.120 A 
ATOM      2  C   UNL     1       1.532   2.239 -22.934  0.00  0.00    +0.046 A 
ATOM      3  C   UNL     1       0.930   2.826 -23.883  0.00  0.00    +0.008 A 
ATOM      4  C   UNL     1      -0.516   3.056 -23.780  0.00  0.00    -0.038 A 
ATOM      5  C   UNL     1      -1.010   2.719 -22.906  0.00  0.00    -0.033 A 
ATOM      6  C   UNL     1      -1.923   2.766 -22.644  0.00  0.00    +0.015 C 
ATOM      7  C   UNL     1      -0.272   2.590 -22.935  0.00  0.00    +0.063 C 
ATOM      8  C   UNL     1       0.298   3.101 -24.190  0.00  0.00    +0.132 C 
ATOM      9  N   UNL     1      -0.409   3.624 -24.969  0.00  0.00    +0.236 N 
ATOM     10  H   UNL     1      -1.257   3.999 -25.394  0.00  0.00    +0.203 HD
ATOM     11  C   UNL     1      -1.965   3.800 -24.714  0.00  0.00    +0.072 C 
ATOM     12  C   UNL     1       0.641   3.859 -25.856  0.00  0.00    +0.190 C 
ATOM     13  C   UNL     1      -2.511   2.367 -21.608  0.00  0.00    +0.086 C 
ATOM     14  C   UNL     1      -3.788   2.555 -21.487  0.00  0.00    +0.134 C 
ATOM     15  O   UNL     1      -4.393   2.148 -20.429  0.00  0.00    -0.297 OA
ATOM     16  C   UNL     1      -4.482   3.156 -22.428  0.00  0.00    +0.075 C 
ATOM     17  C   UNL     1      -3.911   3.581 -23.509  0.00  0.00    +0.017 C 
ATOM     18  C   UNL     1      -2.674   3.420 -23.670  0.00  0.00    +0.049 C 
ATOM     19  C   UNL     1      -1.113   3.644 -24.733  0.00  0.00    +0.090 C 
ATOM     20  C   UNL     1      -0.406   2.102 -21.897  0.00  0.00    +0.050 A 
ENDROOT
BRANCH   1  22
ATOM     21  C   UNL     1       2.225   1.238 -19.991  0.00  0.00    +0.277 C 
ATOM     22  O   UNL     1       1.201   1.210 -20.727  0.00  0.00    -0.495 OA
ENDBRANCH   1  22
TORSDOF 1
ENDMDL
MODEL 6
REMARK VINA RESULT:    -9.208      2.011      4.442
REMARK INTER + INTRA:          -9.839
REMARK INTER:                  -9.719
REMARK INTRA:                  -0.120
REMARK UNBOUND:                -0.093
REMARK  Name = COc1ccc2c(c1)[C@]13CCN(C)[C@@H](C2)[C@H]1CCC(=O)C3                   ZINC000100393861
REMARK  3 active torsions:
REMARK  status: ('A' for Active; 'I' for Inactive)
REMARK    1  A    between atoms: C_1  and  O_2
REMARK    2  A    between atoms: O_2  and  C_3
REMARK    3  A    between atoms: N_12  and  C_13
REMARK                            x       y       z     vdW  Elec       q    Type
REMARK                         _______ _______ _______ _____ _____    ______ ____
ROOT
ATOM      1  C   UNL     1      -3.537   3.190 -21.838  0.00  0.00    +0.120 A 
ATOM      2  C   UNL     1      -4.510   3.312 -22.637  0.00  0.00    +0.046 A 
ATOM      3  C   UNL     1      -4.270   3.441 -23.876  0.00  0.00    +0.008 A 
ATOM      4  C   UNL     1      -2.876   3.443 -24.339  0.00  0.00    -0.038 A 
ATOM      5  C   UNL     1      -2.114   3.336 -23.613  0.00  0.00    -0.033 A 
ATOM      6  C   UNL     1      -1.166   3.312 -23.697  0.00  0.00    +0.015 C 
ATOM      7  C   UNL     1      -2.817   3.332 -23.352  0.00  0.00    +0.063 C 
ATOM      8  C   UNL     1      -3.781   3.487 -24.450  0.00  0.00    +0.132 C 
ATOM      9  N   UNL     1      -3.385   3.595 -25.550  0.00  0.00    +0.236 N 
ATOM     10  H   UNL     1      -2.734   3.659 -26.333  0.00  0.00    +0.203 HD
ATOM     11  C   UNL     1      -1.836   3.579 -25.896  0.00  0.00    +0.072 C 
ATOM     12  C   UNL     1      -4.674   3.698 -26.070  0.00  0.00    +0.190 C 
ATOM     13  C   UNL     1      -0.260   3.185 -22.837  0.00  0.00    +0.086 C 
ATOM     14  C   UNL     1       0.981   3.183 -23.213  0.00  0.00    +0.134 C 
ATOM     15  O   UNL     1       1.912   3.053 -22.336  0.00  0.00    -0.297 OA
ATOM     16  C   UNL     1       1.311   3.311 -24.479  0.00  0.00    +0.075 C 
ATOM     17  C   UNL     1       0.403   3.444 -25.394  0.00  0.00    +0.017 C 
ATOM     18  C   UNL     1      -0.813   3.452 -25.075  0.00  0.00    +0.049 C 
ATOM     19  C   UNL     1      -2.643   3.572 -25.579  0.00  0.00    +0.090 C 
ATOM     20  C   UNL     1      -2.335   3.200 -22.310  0.00  0.00    +0.050 A 
ENDROOT
BRANCH   1  22
ATOM     21  C   UNL     1      -3.054   3.795 -19.516  0.00  0.00    +0.277 C 
ATOM     22  O   UNL     1      -3.443   3.032 -20.441  0.00  0.00    -0.495 OA
ENDBRANCH   1  22
TORSDOF 1
ENDMDL
MODEL 7
REMARK VINA RESULT:    -9.034      1.928      3.427
REMARK INTER + INTRA:          -9.655
REMARK INTER:                  -9.494
REMARK INTRA:                  -0.162
REMARK UNBOUND:                -0.093
REMARK  Name = COc1ccc2c(c1)[C@]13CCN(C)[C@@H](C2)[C@H]1CCC(=O)C3                   ZINC000100393861
REMARK  3 active torsions:
REMARK  status: ('A' for Active; 'I' for Inactive)
REMARK    1  A    between atoms: C_1  and  O_2
REMARK    2  A    between atoms: O_2  and  C_3
REMARK    3  A    between atoms: N_12  and  C_13
REMARK                            x       y       z     vdW  Elec       q    Type
REMARK                         _______ _______ _______ _____ _____    ______ ____
ROOT
ATOM      1  C   UNL     1      -2.416   2.413 -21.453  0.00  0.00    +0.120 A 
ATOM      2  C   UNL     1      -1.178   2.396 -21.192  0.00  0.00    +0.046 A 
ATOM      3  C   UNL     1      -0.354   2.637 -22.125  0.00  0.00    +0.008 A 
ATOM      4  C   UNL     1      -0.862   2.925 -23.472  0.00  0.00    -0.038 A 
ATOM      5  C   UNL     1      -1.910   2.921 -23.617  0.00  0.00    -0.033 A 
ATOM      6  C   UNL     1      -2.437   3.079 -24.394  0.00  0.00    +0.015 C 
ATOM      7  C   UNL     1      -1.676   2.771 -22.921  0.00  0.00    +0.063 C 
ATOM      8  C   UNL     1      -0.208   2.805 -22.846  0.00  0.00    +0.132 C 
ATOM      9  N   UNL     1       0.409   3.047 -23.816  0.00  0.00    +0.236 N 
ATOM     10  H   UNL     1       0.618   3.275 -24.789  0.00  0.00    +0.203 HD
ATOM     11  C   UNL     1      -0.288   3.339 -25.212  0.00  0.00    +0.072 C 
ATOM     12  C   UNL     1       1.626   2.937 -23.143  0.00  0.00    +0.190 C 
ATOM     13  C   UNL     1      -3.681   3.075 -24.568  0.00  0.00    +0.086 C 
ATOM     14  C   UNL     1      -4.161   3.325 -25.745  0.00  0.00    +0.134 C 
ATOM     15  O   UNL     1      -5.434   3.323 -25.928  0.00  0.00    -0.297 OA
ATOM     16  C   UNL     1      -3.372   3.584 -26.764  0.00  0.00    +0.075 C 
ATOM     17  C   UNL     1      -2.084   3.597 -26.623  0.00  0.00    +0.017 C 
ATOM     18  C   UNL     1      -1.574   3.359 -25.498  0.00  0.00    +0.049 C 
ATOM     19  C   UNL     1      -0.033   3.164 -24.402  0.00  0.00    +0.090 C 
ATOM     20  C   UNL     1      -2.797   2.673 -22.660  0.00  0.00    +0.050 A 
ENDROOT
BRANCH   1  22
ATOM     21  C   UNL     1      -4.805   2.272 -20.939  0.00  0.00    +0.277 C 
ATOM     22  O   UNL     1      -3.573   2.197 -20.680  0.00  0.00    -0.495 OA
ENDBRANCH   1  22
TORSDOF 1
ENDMDL
MODEL 8
REMARK VINA RESULT:    -8.638      2.472      5.483
REMARK INTER + INTRA:          -9.236
REMARK INTER:                  -9.142
REMARK INTRA:                  -0.094
REMARK UNBOUND:                -0.093
REMARK  Name = COc1ccc2c(c1)[C@]13CCN(C)[C@@H](C2)[C@H]1CCC(=O)C3                   ZINC000100393861
REMARK  3 active torsions:
REMARK  status: ('A' for Active; 'I' for Inactive)
REMARK    1  A    between atoms: C_1  and  O_2
REMARK    2  A    between atoms: O_2  and  C_3
REMARK    3  A    between atoms: N_12  and  C_13
REMARK                            x       y       z     vdW  Elec       q    Type
REMARK                         _______ _______ _______ _____ _____    ______ ____
ROOT
ATOM      1  C   UNL     1      -2.708   2.724 -22.056  0.00  0.00    +0.120 A 
ATOM      2  C   UNL     1      -2.999   3.123 -23.221  0.00  0.00    +0.046 A 
ATOM      3  C   UNL     1      -2.073   3.219 -24.083  0.00  0.00    +0.008 A 
ATOM      4  C   UNL     1      -0.701   2.865 -23.701  0.00  0.00    -0.038 A 
ATOM      5  C   UNL     1      -0.532   2.539 -22.709  0.00  0.00    -0.033 A 
ATOM      6  C   UNL     1       0.265   2.267 -22.265  0.00  0.00    +0.015 C 
ATOM      7  C   UNL     1      -1.241   2.714 -22.879  0.00  0.00    +0.063 C 
ATOM      8  C   UNL     1      -1.347   3.151 -24.278  0.00  0.00    +0.132 C 
ATOM      9  N   UNL     1      -0.381   3.181 -24.944  0.00  0.00    +0.236 N 
ATOM     10  H   UNL     1       0.598   3.092 -25.220  0.00  0.00    +0.203 HD
ATOM     11  C   UNL     1       1.045   2.765 -24.385  0.00  0.00    +0.072 C 
ATOM     12  C   UNL     1      -1.087   3.637 -26.057  0.00  0.00    +0.190 C 
ATOM     13  C   UNL     1       0.468   1.880 -21.087  0.00  0.00    +0.086 C 
ATOM     14  C   UNL     1       1.668   1.560 -20.718  0.00  0.00    +0.134 C 
ATOM     15  O   UNL     1       1.881   1.163 -19.514  0.00  0.00    -0.297 OA
ATOM     16  C   UNL     1       2.681   1.632 -21.554  0.00  0.00    +0.075 C 
ATOM     17  C   UNL     1       2.511   2.027 -22.775  0.00  0.00    +0.017 C 
ATOM     18  C   UNL     1       1.363   2.348 -23.176  0.00  0.00    +0.049 C 
ATOM     19  C   UNL     1       0.221   2.963 -24.567  0.00  0.00    +0.090 C 
ATOM     20  C   UNL     1      -1.480   2.429 -21.785  0.00  0.00    +0.050 A 
ENDROOT
BRANCH   1  22
ATOM     21  C   UNL     1      -4.685   2.259 -20.691  0.00  0.00    +0.277 C 
ATOM     22  O   UNL     1      -3.465   2.507 -20.888  0.00  0.00    -0.495 OA
ENDBRANCH   1  22
TORSDOF 1
ENDMDL
MODEL 9
REMARK VINA RESULT:    -8.048      4.171      6.549
REMARK INTER + INTRA:          -8.611
REMARK INTER:                  -8.518
REMARK INTRA:                  -0.093
REMARK UNBOUND:                -0.093
REMARK  Name = COc1ccc2c(c1)[C@]13CCN(C)[C@@H](C2)[C@H]1CCC(=O)C3                   ZINC000100393861
REMARK  3 active torsions:
REMARK  status: ('A' for Active; 'I' for Inactive)
REMARK    1  A    between atoms: C_1  and  O_2
REMARK    2  A    between atoms: O_2  and  C_3
REMARK    3  A    between atoms: N_12  and  C_13
REMARK                            x       y       z     vdW  Elec       q    Type
REMARK                         _______ _______ _______ _____ _____    ______ ____
ROOT
ATOM      1  C   UNL     1       5.590   3.767 -22.753  0.00  0.00    +0.120 A 
ATOM      2  C   UNL     1       6.105   2.792 -22.131  0.00  0.00    +0.046 A 
ATOM      3  C   UNL     1       5.342   1.886 -21.678  0.00  0.00    +0.008 A 
ATOM      4  C   UNL     1       3.893   1.998 -21.889  0.00  0.00    -0.038 A 
ATOM      5  C   UNL     1       3.534   2.841 -22.419  0.00  0.00    -0.033 A 
ATOM      6  C   UNL     1       2.651   3.101 -22.659  0.00  0.00    +0.015 C 
ATOM      7  C   UNL     1       4.277   2.807 -22.324  0.00  0.00    +0.063 C 
ATOM      8  C   UNL     1       4.652   1.597 -21.578  0.00  0.00    +0.132 C 
ATOM      9  N   UNL     1       3.810   0.855 -21.229  0.00  0.00    +0.236 N 
ATOM     10  H   UNL     1       2.882   0.455 -21.088  0.00  0.00    +0.203 HD
ATOM     11  C   UNL     1       2.274   1.114 -21.535  0.00  0.00    +0.072 C 
ATOM     12  C   UNL     1       4.731  -0.006 -20.633  0.00  0.00    +0.190 C 
ATOM     13  C   UNL     1       2.223   4.101 -23.287  0.00  0.00    +0.086 C 
ATOM     14  C   UNL     1       0.949   4.230 -23.490  0.00  0.00    +0.134 C 
ATOM     15  O   UNL     1       0.506   5.252 -24.132  0.00  0.00    -0.297 OA
ATOM     16  C   UNL     1       0.094   3.333 -23.052  0.00  0.00    +0.075 C 
ATOM     17  C   UNL     1       0.498   2.289 -22.401  0.00  0.00    +0.017 C 
ATOM     18  C   UNL     1       1.725   2.123 -22.180  0.00  0.00    +0.049 C 
ATOM     19  C   UNL     1       3.135   1.089 -21.434  0.00  0.00    +0.090 C 
ATOM     20  C   UNL     1       4.308   3.805 -22.904  0.00  0.00    +0.050 A 
ENDROOT
BRANCH   1  22
ATOM     21  C   UNL     1       7.306   5.285 -23.614  0.00  0.00    +0.277 C 
ATOM     22  O   UNL     1       6.125   4.914 -23.370  0.00  0.00    -0.495 OA
ENDBRANCH   1  22
TORSDOF 1
ENDMDL
