MODEL 1
REMARK VINA RESULT:   -11.138      0.000      0.000
REMARK INTER + INTRA:         -12.626
REMARK INTER:                 -12.758
REMARK INTRA:                   0.133
REMARK UNBOUND:                 0.140
REMARK  Name = CC[C@]1(O)CC[C@@H]2[C@@H]3CC=C4C[C@H](O)CC[C@]4(C)[C@H]3CC[C@@]21C   ZINC000253504212
REMARK  6 active torsions:
REMARK  status: ('A' for Active; 'I' for Inactive)
REMARK    1  A    between atoms: C_1  and  C_2
REMARK    2  A    between atoms: C_2  and  C_3
REMARK    3  A    between atoms: C_3  and  O_4
REMARK    4  A    between atoms: C_13  and  O_14
REMARK    5  A    between atoms: C_17  and  C_18
REMARK    6  A    between atoms: C_22  and  C_23
REMARK                            x       y       z     vdW  Elec       q    Type
REMARK                         _______ _______ _______ _____ _____    ______ ____
ROOT
ATOM      1  C   UNL     1      -4.369   3.277 -22.580  0.00  0.00    +0.071 C 
ATOM      2  C   UNL     1      -4.430   2.762 -21.376  0.00  0.00    +0.035 C 
ATOM      3  C   UNL     1      -3.231   2.328 -21.062  0.00  0.00    +0.007 C 
ATOM      4  C   UNL     1      -2.431   2.576 -22.071  0.00  0.00    +0.001 C 
ATOM      5  C   UNL     1      -1.156   2.343 -22.254  0.00  0.00    +0.000 C 
ATOM      6  C   UNL     1      -0.456   1.755 -21.310  0.00  0.00    +0.031 C 
ATOM      7  C   UNL     1       0.821   1.521 -21.493  0.00  0.00    -0.027 C 
ATOM      8  C   UNL     1       1.400   1.873 -22.614  0.00  0.00    -0.065 C 
ATOM      9  C   UNL     1       2.678   1.639 -22.797  0.00  0.00    +0.062 C 
ATOM     10  C   UNL     1       3.256   1.991 -23.919  0.00  0.00    +0.119 C 
ATOM     11  C   UNL     1       2.559   2.579 -24.863  0.00  0.00    +0.032 C 
ATOM     12  C   UNL     1       1.280   2.813 -24.679  0.00  0.00    +0.014 C 
ATOM     13  C   UNL     1       0.701   2.461 -23.558  0.00  0.00    -0.008 C 
ATOM     14  C   UNL     1       0.002   3.048 -24.500  0.00  0.00    +0.016 C 
ATOM     15  C   UNL     1      -0.577   2.695 -23.376  0.00  0.00    +0.003 C 
ATOM     16  C   UNL     1      -1.277   3.283 -24.319  0.00  0.00    +0.005 C 
ATOM     17  C   UNL     1      -2.555   3.516 -24.136  0.00  0.00    +0.010 C 
ATOM     18  C   UNL     1      -3.133   3.164 -23.014  0.00  0.00    -0.000 C 
ATOM     19  C   UNL     1      -3.858   3.740 -23.916  0.00  0.00    +0.014 C 
ENDROOT
BRANCH   1  21
ATOM     20  C   UNL     1      -6.378   2.620 -21.718  0.00  0.00    +0.007 C 
ATOM     21  C   UNL     1      -5.651   3.493 -22.354  0.00  0.00    +0.032 C 
ENDBRANCH   1  21
BRANCH  10  22
ATOM     22  O   UNL     1       4.536   1.756 -24.101  0.00  0.00    -0.391 OA
ATOM     23  H   UNL     1       5.000   2.594 -24.252  0.00  0.00    +0.210 HD
ENDBRANCH  10  22
BRANCH   1  24
ATOM     24  O   UNL     1      -4.650   3.731 -23.452  0.00  0.00    -0.388 OA
ATOM     25  H   UNL     1      -4.445   4.678 -23.404  0.00  0.00    +0.210 HD
ENDBRANCH   1  24
TORSDOF 3
ENDMDL
MODEL 2
REMARK VINA RESULT:   -10.789      0.974      2.514
REMARK INTER + INTRA:         -12.225
REMARK INTER:                 -12.432
REMARK INTRA:                   0.207
REMARK UNBOUND:                 0.140
REMARK  Name = CC[C@]1(O)CC[C@@H]2[C@@H]3CC=C4C[C@H](O)CC[C@]4(C)[C@H]3CC[C@@]21C   ZINC000253504212
REMARK  6 active torsions:
REMARK  status: ('A' for Active; 'I' for Inactive)
REMARK    1  A    between atoms: C_1  and  C_2
REMARK    2  A    between atoms: C_2  and  C_3
REMARK    3  A    between atoms: C_3  and  O_4
REMARK    4  A    between atoms: C_13  and  O_14
REMARK    5  A    between atoms: C_17  and  C_18
REMARK    6  A    between atoms: C_22  and  C_23
REMARK                            x       y       z     vdW  Elec       q    Type
REMARK                         _______ _______ _______ _____ _____    ______ ____
ROOT
ATOM      1  C   UNL     1      -3.528   3.205 -22.566  0.00  0.00    +0.071 C 
ATOM      2  C   UNL     1      -3.595   3.763 -23.750  0.00  0.00    +0.035 C 
ATOM      3  C   UNL     1      -2.409   3.674 -24.306  0.00  0.00    +0.007 C 
ATOM      4  C   UNL     1      -1.610   3.061 -23.467  0.00  0.00    +0.001 C 
ATOM      5  C   UNL     1      -0.346   2.731 -23.544  0.00  0.00    +0.000 C 
ATOM      6  C   UNL     1       0.342   3.025 -24.625  0.00  0.00    +0.031 C 
ATOM      7  C   UNL     1       1.608   2.695 -24.704  0.00  0.00    -0.027 C 
ATOM      8  C   UNL     1       2.188   2.074 -23.707  0.00  0.00    -0.065 C 
ATOM      9  C   UNL     1       3.456   1.744 -23.785  0.00  0.00    +0.062 C 
ATOM     10  C   UNL     1       4.036   1.122 -22.788  0.00  0.00    +0.119 C 
ATOM     11  C   UNL     1       3.351   0.827 -21.707  0.00  0.00    +0.032 C 
ATOM     12  C   UNL     1       2.082   1.158 -21.630  0.00  0.00    +0.014 C 
ATOM     13  C   UNL     1       1.502   1.780 -22.627  0.00  0.00    -0.008 C 
ATOM     14  C   UNL     1       0.815   1.487 -21.548  0.00  0.00    +0.016 C 
ATOM     15  C   UNL     1       0.235   2.109 -22.547  0.00  0.00    +0.003 C 
ATOM     16  C   UNL     1      -0.453   1.816 -21.467  0.00  0.00    +0.005 C 
ATOM     17  C   UNL     1      -1.720   2.147 -21.389  0.00  0.00    +0.010 C 
ATOM     18  C   UNL     1      -2.300   2.768 -22.386  0.00  0.00    -0.000 C 
ATOM     19  C   UNL     1      -3.012   2.498 -21.343  0.00  0.00    +0.014 C 
ENDROOT
BRANCH   1  21
ATOM     20  C   UNL     1      -5.467   3.776 -23.625  0.00  0.00    +0.007 C 
ATOM     21  C   UNL     1      -4.799   3.555 -22.530  0.00  0.00    +0.032 C 
ENDBRANCH   1  21
BRANCH  10  22
ATOM     22  O   UNL     1       5.305   0.792 -22.868  0.00  0.00    -0.391 OA
ATOM     23  H   UNL     1       5.784   1.467 -23.372  0.00  0.00    +0.210 HD
ENDBRANCH  10  22
BRANCH   1  24
ATOM     24  O   UNL     1      -3.801   2.863 -21.643  0.00  0.00    -0.388 OA
ATOM     25  H   UNL     1      -4.334   3.538 -21.193  0.00  0.00    +0.210 HD
ENDBRANCH   1  24
TORSDOF 3
ENDMDL
MODEL 3
REMARK VINA RESULT:   -10.617      0.984      6.126
REMARK INTER + INTRA:         -12.028
REMARK INTER:                 -12.084
REMARK INTRA:                   0.056
REMARK UNBOUND:                 0.140
REMARK  Name = CC[C@]1(O)CC[C@@H]2[C@@H]3CC=C4C[C@H](O)CC[C@]4(C)[C@H]3CC[C@@]21C   ZINC000253504212
REMARK  6 active torsions:
REMARK  status: ('A' for Active; 'I' for Inactive)
REMARK    1  A    between atoms: C_1  and  C_2
REMARK    2  A    between atoms: C_2  and  C_3
REMARK    3  A    between atoms: C_3  and  O_4
REMARK    4  A    between atoms: C_13  and  O_14
REMARK    5  A    between atoms: C_17  and  C_18
REMARK    6  A    between atoms: C_22  and  C_23
REMARK                            x       y       z     vdW  Elec       q    Type
REMARK                         _______ _______ _______ _____ _____    ______ ____
ROOT
ATOM      1  C   UNL     1       2.526   2.334 -23.958  0.00  0.00    +0.071 C 
ATOM      2  C   UNL     1       2.822   1.840 -22.781  0.00  0.00    +0.035 C 
ATOM      3  C   UNL     1       1.722   1.811 -22.066  0.00  0.00    +0.007 C 
ATOM      4  C   UNL     1       0.746   2.288 -22.801  0.00  0.00    +0.001 C 
ATOM      5  C   UNL     1      -0.527   2.468 -22.555  0.00  0.00    +0.000 C 
ATOM      6  C   UNL     1      -1.019   2.142 -21.381  0.00  0.00    +0.031 C 
ATOM      7  C   UNL     1      -2.294   2.322 -21.134  0.00  0.00    -0.027 C 
ATOM      8  C   UNL     1      -3.077   2.826 -22.056  0.00  0.00    -0.065 C 
ATOM      9  C   UNL     1      -4.353   3.007 -21.809  0.00  0.00    +0.062 C 
ATOM     10  C   UNL     1      -5.136   3.510 -22.730  0.00  0.00    +0.119 C 
ATOM     11  C   UNL     1      -4.647   3.837 -23.904  0.00  0.00    +0.032 C 
ATOM     12  C   UNL     1      -3.369   3.656 -24.151  0.00  0.00    +0.014 C 
ATOM     13  C   UNL     1      -2.586   3.152 -23.229  0.00  0.00    -0.008 C 
ATOM     14  C   UNL     1      -2.094   3.477 -24.401  0.00  0.00    +0.016 C 
ATOM     15  C   UNL     1      -1.311   2.972 -23.477  0.00  0.00    +0.003 C 
ATOM     16  C   UNL     1      -0.818   3.297 -24.651  0.00  0.00    +0.005 C 
ATOM     17  C   UNL     1       0.458   3.117 -24.897  0.00  0.00    +0.010 C 
ATOM     18  C   UNL     1       1.241   2.613 -23.975  0.00  0.00    -0.000 C 
ATOM     19  C   UNL     1       1.765   2.919 -25.115  0.00  0.00    +0.014 C 
ENDROOT
BRANCH   1  21
ATOM     20  C   UNL     1       4.708   2.920 -23.633  0.00  0.00    +0.007 C 
ATOM     21  C   UNL     1       3.814   2.136 -24.163  0.00  0.00    +0.032 C 
ENDBRANCH   1  21
BRANCH  10  22
ATOM     22  O   UNL     1      -6.413   3.691 -22.482  0.00  0.00    -0.391 OA
ATOM     23  H   UNL     1      -6.663   3.188 -21.692  0.00  0.00    +0.210 HD
ENDBRANCH  10  22
BRANCH   1  24
ATOM     24  O   UNL     1       2.626   2.665 -24.920  0.00  0.00    -0.388 OA
ATOM     25  H   UNL     1       2.827   3.614 -24.915  0.00  0.00    +0.210 HD
ENDBRANCH   1  24
TORSDOF 3
ENDMDL
MODEL 4
REMARK VINA RESULT:    -9.760      1.832      2.811
REMARK INTER + INTRA:         -11.046
REMARK INTER:                 -11.182
REMARK INTRA:                   0.136
REMARK UNBOUND:                 0.140
REMARK  Name = CC[C@]1(O)CC[C@@H]2[C@@H]3CC=C4C[C@H](O)CC[C@]4(C)[C@H]3CC[C@@]21C   ZINC000253504212
REMARK  6 active torsions:
REMARK  status: ('A' for Active; 'I' for Inactive)
REMARK    1  A    between atoms: C_1  and  C_2
REMARK    2  A    between atoms: C_2  and  C_3
REMARK    3  A    between atoms: C_3  and  O_4
REMARK    4  A    between atoms: C_13  and  O_14
REMARK    5  A    between atoms: C_17  and  C_18
REMARK    6  A    between atoms: C_22  and  C_23
REMARK                            x       y       z     vdW  Elec       q    Type
REMARK                         _______ _______ _______ _____ _____    ______ ____
ROOT
ATOM      1  C   UNL     1      -1.907   3.649 -23.022  0.00  0.00    +0.071 C 
ATOM      2  C   UNL     1      -2.247   2.523 -22.442  0.00  0.00    +0.035 C 
ATOM      3  C   UNL     1      -1.145   1.887 -22.121  0.00  0.00    +0.007 C 
ATOM      4  C   UNL     1      -0.125   2.618 -22.501  0.00  0.00    +0.001 C 
ATOM      5  C   UNL     1       1.167   2.431 -22.411  0.00  0.00    +0.000 C 
ATOM      6  C   UNL     1       1.633   1.337 -21.852  0.00  0.00    +0.031 C 
ATOM      7  C   UNL     1       2.928   1.149 -21.762  0.00  0.00    -0.027 C 
ATOM      8  C   UNL     1       3.756   2.051 -22.228  0.00  0.00    -0.065 C 
ATOM      9  C   UNL     1       5.052   1.863 -22.137  0.00  0.00    +0.062 C 
ATOM     10  C   UNL     1       5.880   2.764 -22.604  0.00  0.00    +0.119 C 
ATOM     11  C   UNL     1       5.417   3.859 -23.163  0.00  0.00    +0.032 C 
ATOM     12  C   UNL     1       4.120   4.046 -23.253  0.00  0.00    +0.014 C 
ATOM     13  C   UNL     1       3.292   3.144 -22.787  0.00  0.00    -0.008 C 
ATOM     14  C   UNL     1       2.826   4.236 -23.345  0.00  0.00    +0.016 C 
ATOM     15  C   UNL     1       1.997   3.333 -22.877  0.00  0.00    +0.003 C 
ATOM     16  C   UNL     1       1.530   4.427 -23.436  0.00  0.00    +0.005 C 
ATOM     17  C   UNL     1       0.235   4.613 -23.526  0.00  0.00    +0.010 C 
ATOM     18  C   UNL     1      -0.594   3.712 -23.060  0.00  0.00    -0.000 C 
ATOM     19  C   UNL     1      -1.093   4.773 -23.602  0.00  0.00    +0.014 C 
ENDROOT
BRANCH   1  21
ATOM     20  C   UNL     1      -3.884   3.393 -24.133  0.00  0.00    +0.007 C 
ATOM     21  C   UNL     1      -3.216   3.797 -23.091  0.00  0.00    +0.032 C 
ENDBRANCH   1  21
BRANCH  10  22
ATOM     22  O   UNL     1       7.177   2.576 -22.513  0.00  0.00    -0.391 OA
ATOM     23  H   UNL     1       7.636   3.423 -22.621  0.00  0.00    +0.210 HD
ENDBRANCH  10  22
BRANCH   1  24
ATOM     24  O   UNL     1      -1.979   4.556 -23.487  0.00  0.00    -0.388 OA
ATOM     25  H   UNL     1      -1.989   5.261 -22.820  0.00  0.00    +0.210 HD
ENDBRANCH   1  24
TORSDOF 3
ENDMDL
MODEL 5
REMARK VINA RESULT:    -9.155      2.132      3.634
REMARK INTER + INTRA:         -10.353
REMARK INTER:                 -10.566
REMARK INTRA:                   0.213
REMARK UNBOUND:                 0.140
REMARK  Name = CC[C@]1(O)CC[C@@H]2[C@@H]3CC=C4C[C@H](O)CC[C@]4(C)[C@H]3CC[C@@]21C   ZINC000253504212
REMARK  6 active torsions:
REMARK  status: ('A' for Active; 'I' for Inactive)
REMARK    1  A    between atoms: C_1  and  C_2
REMARK    2  A    between atoms: C_2  and  C_3
REMARK    3  A    between atoms: C_3  and  O_4
REMARK    4  A    between atoms: C_13  and  O_14
REMARK    5  A    between atoms: C_17  and  C_18
REMARK    6  A    between atoms: C_22  and  C_23
REMARK                            x       y       z     vdW  Elec       q    Type
REMARK                         _______ _______ _______ _____ _____    ______ ____
ROOT
ATOM      1  C   UNL     1      -1.639   3.410 -23.401  0.00  0.00    +0.071 C 
ATOM      2  C   UNL     1      -1.738   4.709 -23.544  0.00  0.00    +0.035 C 
ATOM      3  C   UNL     1      -0.529   5.216 -23.480  0.00  0.00    +0.007 C 
ATOM      4  C   UNL     1       0.317   4.231 -23.298  0.00  0.00    +0.001 C 
ATOM      5  C   UNL     1       1.620   4.208 -23.171  0.00  0.00    +0.000 C 
ATOM      6  C   UNL     1       2.302   5.330 -23.221  0.00  0.00    +0.031 C 
ATOM      7  C   UNL     1       3.607   5.308 -23.094  0.00  0.00    -0.027 C 
ATOM      8  C   UNL     1       4.230   4.169 -22.917  0.00  0.00    -0.065 C 
ATOM      9  C   UNL     1       5.536   4.147 -22.790  0.00  0.00    +0.062 C 
ATOM     10  C   UNL     1       6.159   3.008 -22.614  0.00  0.00    +0.119 C 
ATOM     11  C   UNL     1       5.480   1.886 -22.563  0.00  0.00    +0.032 C 
ATOM     12  C   UNL     1       4.173   1.909 -22.691  0.00  0.00    +0.014 C 
ATOM     13  C   UNL     1       3.549   3.048 -22.867  0.00  0.00    -0.008 C 
ATOM     14  C   UNL     1       2.867   1.928 -22.817  0.00  0.00    +0.016 C 
ATOM     15  C   UNL     1       2.244   3.069 -22.994  0.00  0.00    +0.003 C 
ATOM     16  C   UNL     1       1.561   1.947 -22.944  0.00  0.00    +0.005 C 
ATOM     17  C   UNL     1       0.256   1.970 -23.072  0.00  0.00    +0.010 C 
ATOM     18  C   UNL     1      -0.368   3.109 -23.248  0.00  0.00    -0.000 C 
ATOM     19  C   UNL     1      -1.076   2.030 -23.205  0.00  0.00    +0.014 C 
ENDROOT
BRANCH   1  21
ATOM     20  C   UNL     1      -3.525   3.215 -24.671  0.00  0.00    +0.007 C 
ATOM     21  C   UNL     1      -2.950   3.479 -23.533  0.00  0.00    +0.032 C 
ENDBRANCH   1  21
BRANCH  10  22
ATOM     22  O   UNL     1       7.467   2.987 -22.486  0.00  0.00    -0.391 OA
ATOM     23  H   UNL     1       7.868   2.680 -23.314  0.00  0.00    +0.210 HD
ENDBRANCH  10  22
BRANCH   1  24
ATOM     24  O   UNL     1      -1.897   2.424 -23.324  0.00  0.00    -0.388 OA
ATOM     25  H   UNL     1      -2.154   2.089 -24.198  0.00  0.00    +0.210 HD
ENDBRANCH   1  24
TORSDOF 3
ENDMDL
