MODEL 1
REMARK VINA RESULT:    -8.722      0.000      0.000
REMARK INTER + INTRA:         -11.792
REMARK INTER:                 -11.230
REMARK INTRA:                  -0.562
REMARK UNBOUND:                -0.521
REMARK  Name = ZINC000002049066
REMARK  5 active torsions:
REMARK  status: ('A' for Active; 'I' for Inactive)
REMARK    1  A    between atoms: C_11  and  O_12
REMARK    2  A    between atoms: O_12  and  C_13
REMARK    3  A    between atoms: C_13  and  C_14
REMARK    4  A    between atoms: N_23  and  C_24
REMARK    5  A    between atoms: C_24  and  C_25
REMARK                            x       y       z     vdW  Elec       q    Type
REMARK                         _______ _______ _______ _____ _____    ______ ____
ROOT
ATOM      1  O   UNL     1       8.302   6.997 -21.530  0.00  0.00    -0.270 OA
ATOM      2  C   UNL     1       7.048   6.799 -21.811  0.00  0.00    +0.248 C 
ATOM      3  C   UNL     1       6.182   7.751 -21.627  0.00  0.00    +0.044 A 
ATOM      4  C   UNL     1       6.571   8.901 -21.162  0.00  0.00    +0.063 A 
ATOM      5  C   UNL     1       5.706   9.853 -20.978  0.00  0.00    +0.167 A 
ATOM      6  C   UNL     1       4.451   9.656 -21.259  0.00  0.00    +0.167 A 
ATOM      7  O   UNL     1       3.802  10.749 -20.989  0.00  0.00    -0.453 OA
ATOM      8  C   UNL     1       4.655  11.623 -20.541  0.00  0.00    +0.466 C 
ATOM      9  C   UNL     1       4.064   8.506 -21.724  0.00  0.00    +0.054 A 
ATOM     10  O   UNL     1       5.831  11.070 -20.534  0.00  0.00    -0.453 OA
ATOM     11  C   UNL     1       4.928   7.554 -21.908  0.00  0.00    -0.027 A 
ATOM     12  C   UNL     1       4.541   6.403 -22.374  0.00  0.00    +0.043 C 
ATOM     13  C   UNL     1       3.286   6.207 -22.654  0.00  0.00    +0.041 C 
ATOM     14  C   UNL     1       2.898   5.056 -23.120  0.00  0.00    +0.119 C 
ATOM     15  C   UNL     1       3.763   4.103 -23.304  0.00  0.00    +0.033 C 
ATOM     16  C   UNL     1       5.018   4.301 -23.023  0.00  0.00    +0.025 C 
ATOM     17  C   UNL     1       5.406   5.451 -22.558  0.00  0.00    +0.084 C 
ATOM     18  N   UNL     1       6.659   5.649 -22.277  0.00  0.00    -0.290 N 
ENDROOT
BRANCH  14  19
ATOM     19  O   UNL     1       1.645   4.858 -23.401  0.00  0.00    -0.372 OA
BRANCH  19  20
ATOM     20  C   UNL     1       1.201   3.649 -23.576  0.00  0.00    +0.195 C 
BRANCH  20  21
ATOM     21  C   UNL     1       0.172   3.230 -22.901  0.00  0.00    -0.022 A 
ATOM     22  C   UNL     1      -0.892   3.972 -22.809  0.00  0.00    +0.006 A 
ATOM     23  C   UNL     1      -1.921   3.552 -22.133  0.00  0.00    +0.000 A 
ATOM     24  C   UNL     1      -1.885   2.391 -21.550  0.00  0.00    +0.000 A 
ATOM     25  C   UNL     1      -0.821   1.648 -21.642  0.00  0.00    +0.000 A 
ATOM     26  C   UNL     1       0.208   2.068 -22.318  0.00  0.00    +0.006 A 
ENDBRANCH  20  21
ENDBRANCH  19  20
ENDBRANCH  14  19
BRANCH  18  27
ATOM     27  C   UNL     1       7.525   4.697 -22.461  0.00  0.00    +0.143 C 
BRANCH  27  28
ATOM     28  C   UNL     1       8.001   4.471 -23.649  0.00  0.00    -0.030 A 
ATOM     29  C   UNL     1       8.302   3.259 -24.008  0.00  0.00    +0.005 A 
ATOM     30  C   UNL     1       8.779   3.032 -25.197  0.00  0.00    +0.000 A 
ATOM     31  C   UNL     1       8.955   4.018 -26.025  0.00  0.00    +0.000 A 
ATOM     32  C   UNL     1       8.654   5.231 -25.666  0.00  0.00    +0.000 A 
ATOM     33  C   UNL     1       8.177   5.457 -24.477  0.00  0.00    +0.005 A 
ENDBRANCH  27  28
ENDBRANCH  18  27
TORSDOF 5
ENDMDL
MODEL 2
REMARK VINA RESULT:    -8.513      1.980      3.100
REMARK INTER + INTRA:         -11.522
REMARK INTER:                 -11.185
REMARK INTRA:                  -0.337
REMARK UNBOUND:                -0.521
REMARK  Name = ZINC000002049066
REMARK  5 active torsions:
REMARK  status: ('A' for Active; 'I' for Inactive)
REMARK    1  A    between atoms: C_11  and  O_12
REMARK    2  A    between atoms: O_12  and  C_13
REMARK    3  A    between atoms: C_13  and  C_14
REMARK    4  A    between atoms: N_23  and  C_24
REMARK    5  A    between atoms: C_24  and  C_25
REMARK                            x       y       z     vdW  Elec       q    Type
REMARK                         _______ _______ _______ _____ _____    ______ ____
ROOT
ATOM      1  O   UNL     1       7.291   5.019 -22.037  0.00  0.00    -0.270 OA
ATOM      2  C   UNL     1       6.043   5.271 -22.298  0.00  0.00    +0.248 C 
ATOM      3  C   UNL     1       5.566   6.465 -22.102  0.00  0.00    +0.044 A 
ATOM      4  C   UNL     1       6.339   7.406 -21.645  0.00  0.00    +0.063 A 
ATOM      5  C   UNL     1       5.863   8.599 -21.448  0.00  0.00    +0.167 A 
ATOM      6  C   UNL     1       4.614   8.852 -21.709  0.00  0.00    +0.167 A 
ATOM      7  O   UNL     1       4.392  10.102 -21.431  0.00  0.00    -0.453 OA
ATOM      8  C   UNL     1       5.502  10.622 -20.998  0.00  0.00    +0.466 C 
ATOM      9  C   UNL     1       3.843   7.912 -22.166  0.00  0.00    +0.054 A 
ATOM     10  O   UNL     1       6.412   9.693 -21.009  0.00  0.00    -0.453 OA
ATOM     11  C   UNL     1       4.318   6.718 -22.363  0.00  0.00    -0.027 A 
ATOM     12  C   UNL     1       3.546   5.777 -22.820  0.00  0.00    +0.043 C 
ATOM     13  C   UNL     1       2.298   6.031 -23.080  0.00  0.00    +0.041 C 
ATOM     14  C   UNL     1       1.526   5.090 -23.537  0.00  0.00    +0.119 C 
ATOM     15  C   UNL     1       2.001   3.896 -23.734  0.00  0.00    +0.033 C 
ATOM     16  C   UNL     1       3.250   3.643 -23.473  0.00  0.00    +0.025 C 
ATOM     17  C   UNL     1       4.022   4.584 -23.016  0.00  0.00    +0.084 C 
ATOM     18  N   UNL     1       5.270   4.331 -22.755  0.00  0.00    -0.290 N 
ENDROOT
BRANCH  14  19
ATOM     19  O   UNL     1       0.278   5.343 -23.798  0.00  0.00    -0.372 OA
BRANCH  19  20
ATOM     20  C   UNL     1      -0.602   5.326 -22.841  0.00  0.00    +0.195 C 
BRANCH  20  21
ATOM     21  C   UNL     1      -1.666   4.585 -22.949  0.00  0.00    -0.022 A 
ATOM     22  C   UNL     1      -2.307   4.530 -24.079  0.00  0.00    +0.006 A 
ATOM     23  C   UNL     1      -3.371   3.789 -24.186  0.00  0.00    +0.000 A 
ATOM     24  C   UNL     1      -3.791   3.105 -23.164  0.00  0.00    +0.000 A 
ATOM     25  C   UNL     1      -3.150   3.160 -22.035  0.00  0.00    +0.000 A 
ATOM     26  C   UNL     1      -2.086   3.901 -21.927  0.00  0.00    +0.006 A 
ENDBRANCH  20  21
ENDBRANCH  19  20
ENDBRANCH  14  19
BRANCH  18  27
ATOM     27  C   UNL     1       5.747   3.137 -22.952  0.00  0.00    +0.143 C 
BRANCH  27  28
ATOM     28  C   UNL     1       5.387   2.158 -22.177  0.00  0.00    -0.030 A 
ATOM     29  C   UNL     1       4.754   1.137 -22.674  0.00  0.00    +0.005 A 
ATOM     30  C   UNL     1       4.394   0.156 -21.900  0.00  0.00    +0.000 A 
ATOM     31  C   UNL     1       4.666   0.197 -20.630  0.00  0.00    +0.000 A 
ATOM     32  C   UNL     1       5.299   1.218 -20.133  0.00  0.00    +0.000 A 
ATOM     33  C   UNL     1       5.659   2.199 -20.907  0.00  0.00    +0.005 A 
ENDBRANCH  27  28
ENDBRANCH  18  27
TORSDOF 5
ENDMDL
MODEL 3
REMARK VINA RESULT:    -7.786      1.680      6.434
REMARK INTER + INTRA:         -10.582
REMARK INTER:                 -10.247
REMARK INTRA:                  -0.335
REMARK UNBOUND:                -0.521
REMARK  Name = ZINC000002049066
REMARK  5 active torsions:
REMARK  status: ('A' for Active; 'I' for Inactive)
REMARK    1  A    between atoms: C_11  and  O_12
REMARK    2  A    between atoms: O_12  and  C_13
REMARK    3  A    between atoms: C_13  and  C_14
REMARK    4  A    between atoms: N_23  and  C_24
REMARK    5  A    between atoms: C_24  and  C_25
REMARK                            x       y       z     vdW  Elec       q    Type
REMARK                         _______ _______ _______ _____ _____    ______ ____
ROOT
ATOM      1  O   UNL     1       4.940   2.239 -23.911  0.00  0.00    -0.270 OA
ATOM      2  C   UNL     1       4.651   3.429 -23.476  0.00  0.00    +0.248 C 
ATOM      3  C   UNL     1       3.423   3.854 -23.510  0.00  0.00    +0.044 A 
ATOM      4  C   UNL     1       2.484   3.087 -23.980  0.00  0.00    +0.063 A 
ATOM      5  C   UNL     1       1.256   3.510 -24.014  0.00  0.00    +0.167 A 
ATOM      6  C   UNL     1       0.966   4.702 -23.579  0.00  0.00    +0.167 A 
ATOM      7  O   UNL     1      -0.314   4.881 -23.721  0.00  0.00    -0.453 OA
ATOM      8  C   UNL     1      -0.816   3.801 -24.244  0.00  0.00    +0.466 C 
ATOM      9  C   UNL     1       1.905   5.467 -23.110  0.00  0.00    +0.054 A 
ATOM     10  O   UNL     1       0.154   2.954 -24.425  0.00  0.00    -0.453 OA
ATOM     11  C   UNL     1       3.134   5.044 -23.076  0.00  0.00    -0.027 A 
ATOM     12  C   UNL     1       4.073   5.810 -22.606  0.00  0.00    +0.043 C 
ATOM     13  C   UNL     1       3.783   7.001 -22.172  0.00  0.00    +0.041 C 
ATOM     14  C   UNL     1       4.723   7.767 -21.703  0.00  0.00    +0.119 C 
ATOM     15  C   UNL     1       5.951   7.344 -21.668  0.00  0.00    +0.033 C 
ATOM     16  C   UNL     1       6.241   6.153 -22.103  0.00  0.00    +0.025 C 
ATOM     17  C   UNL     1       5.301   5.387 -22.572  0.00  0.00    +0.084 C 
ATOM     18  N   UNL     1       5.590   4.196 -23.007  0.00  0.00    -0.290 N 
ENDROOT
BRANCH  14  19
ATOM     19  O   UNL     1       4.434   8.958 -21.268  0.00  0.00    -0.372 OA
BRANCH  19  20
ATOM     20  C   UNL     1       4.114   9.897 -22.108  0.00  0.00    +0.195 C 
BRANCH  20  21
ATOM     21  C   UNL     1       3.702  11.050 -21.670  0.00  0.00    -0.022 A 
ATOM     22  C   UNL     1       3.768  11.323 -20.400  0.00  0.00    +0.006 A 
ATOM     23  C   UNL     1       3.355  12.476 -19.962  0.00  0.00    +0.000 A 
ATOM     24  C   UNL     1       2.877  13.354 -20.793  0.00  0.00    +0.000 A 
ATOM     25  C   UNL     1       2.811  13.080 -22.062  0.00  0.00    +0.000 A 
ATOM     26  C   UNL     1       3.224  11.927 -22.501  0.00  0.00    +0.006 A 
ENDBRANCH  20  21
ENDBRANCH  19  20
ENDBRANCH  14  19
BRANCH  18  27
ATOM     27  C   UNL     1       6.819   3.772 -22.973  0.00  0.00    +0.143 C 
BRANCH  27  28
ATOM     28  C   UNL     1       7.567   3.858 -24.032  0.00  0.00    -0.030 A 
ATOM     29  C   UNL     1       7.636   4.978 -24.688  0.00  0.00    +0.005 A 
ATOM     30  C   UNL     1       8.384   5.065 -25.748  0.00  0.00    +0.000 A 
ATOM     31  C   UNL     1       9.062   4.032 -26.151  0.00  0.00    +0.000 A 
ATOM     32  C   UNL     1       8.993   2.912 -25.495  0.00  0.00    +0.000 A 
ATOM     33  C   UNL     1       8.245   2.825 -24.435  0.00  0.00    +0.005 A 
ENDBRANCH  27  28
ENDBRANCH  18  27
TORSDOF 5
ENDMDL
MODEL 4
REMARK VINA RESULT:    -7.649      2.841      7.472
REMARK INTER + INTRA:         -10.405
REMARK INTER:                 -10.101
REMARK INTRA:                  -0.304
REMARK UNBOUND:                -0.521
REMARK  Name = ZINC000002049066
REMARK  5 active torsions:
REMARK  status: ('A' for Active; 'I' for Inactive)
REMARK    1  A    between atoms: C_11  and  O_12
REMARK    2  A    between atoms: O_12  and  C_13
REMARK    3  A    between atoms: C_13  and  C_14
REMARK    4  A    between atoms: N_23  and  C_24
REMARK    5  A    between atoms: C_24  and  C_25
REMARK                            x       y       z     vdW  Elec       q    Type
REMARK                         _______ _______ _______ _____ _____    ______ ____
ROOT
ATOM      1  O   UNL     1       1.935   1.081 -24.393  0.00  0.00    -0.270 OA
ATOM      2  C   UNL     1       2.064   2.321 -24.024  0.00  0.00    +0.248 C 
ATOM      3  C   UNL     1       1.033   3.113 -24.031  0.00  0.00    +0.044 A 
ATOM      4  C   UNL     1      -0.128   2.664 -24.408  0.00  0.00    +0.063 A 
ATOM      5  C   UNL     1      -1.159   3.455 -24.415  0.00  0.00    +0.167 A 
ATOM      6  C   UNL     1      -1.029   4.695 -24.046  0.00  0.00    +0.167 A 
ATOM      7  O   UNL     1      -2.193   5.266 -24.143  0.00  0.00    -0.453 OA
ATOM      8  C   UNL     1      -3.042   4.379 -24.572  0.00  0.00    +0.466 C 
ATOM      9  C   UNL     1       0.131   5.143 -23.670  0.00  0.00    +0.054 A 
ATOM     10  O   UNL     1      -2.403   3.260 -24.740  0.00  0.00    -0.453 OA
ATOM     11  C   UNL     1       1.162   4.352 -23.662  0.00  0.00    -0.027 A 
ATOM     12  C   UNL     1       2.323   4.800 -23.286  0.00  0.00    +0.043 C 
ATOM     13  C   UNL     1       2.452   6.041 -22.917  0.00  0.00    +0.041 C 
ATOM     14  C   UNL     1       3.612   6.489 -22.541  0.00  0.00    +0.119 C 
ATOM     15  C   UNL     1       4.644   5.698 -22.533  0.00  0.00    +0.033 C 
ATOM     16  C   UNL     1       4.515   4.457 -22.902  0.00  0.00    +0.025 C 
ATOM     17  C   UNL     1       3.354   4.009 -23.279  0.00  0.00    +0.084 C 
ATOM     18  N   UNL     1       3.225   2.770 -23.648  0.00  0.00    -0.290 N 
ENDROOT
BRANCH  14  19
ATOM     19  O   UNL     1       3.742   7.728 -22.171  0.00  0.00    -0.372 OA
BRANCH  19  20
ATOM     20  C   UNL     1       4.877   8.151 -21.697  0.00  0.00    +0.195 C 
BRANCH  20  21
ATOM     21  C   UNL     1       5.059   9.419 -21.480  0.00  0.00    -0.022 A 
ATOM     22  C   UNL     1       4.183  10.094 -20.797  0.00  0.00    +0.006 A 
ATOM     23  C   UNL     1       4.366  11.364 -20.580  0.00  0.00    +0.000 A 
ATOM     24  C   UNL     1       5.425  11.956 -21.048  0.00  0.00    +0.000 A 
ATOM     25  C   UNL     1       6.301  11.281 -21.731  0.00  0.00    +0.000 A 
ATOM     26  C   UNL     1       6.118  10.012 -21.948  0.00  0.00    +0.006 A 
ENDBRANCH  20  21
ENDBRANCH  19  20
ENDBRANCH  14  19
BRANCH  18  27
ATOM     27  C   UNL     1       4.256   1.978 -23.641  0.00  0.00    +0.143 C 
BRANCH  27  28
ATOM     28  C   UNL     1       4.533   1.280 -22.580  0.00  0.00    -0.030 A 
ATOM     29  C   UNL     1       5.744   0.849 -22.385  0.00  0.00    +0.005 A 
ATOM     30  C   UNL     1       6.022   0.151 -21.323  0.00  0.00    +0.000 A 
ATOM     31  C   UNL     1       5.089  -0.117 -20.459  0.00  0.00    +0.000 A 
ATOM     32  C   UNL     1       3.878   0.314 -20.654  0.00  0.00    +0.000 A 
ATOM     33  C   UNL     1       3.601   1.013 -21.716  0.00  0.00    +0.005 A 
ENDBRANCH  27  28
ENDBRANCH  18  27
TORSDOF 5
ENDMDL
MODEL 5
REMARK VINA RESULT:    -7.545      3.496      8.605
REMARK INTER + INTRA:         -10.271
REMARK INTER:                  -9.774
REMARK INTRA:                  -0.497
REMARK UNBOUND:                -0.521
REMARK  Name = ZINC000002049066
REMARK  5 active torsions:
REMARK  status: ('A' for Active; 'I' for Inactive)
REMARK    1  A    between atoms: C_11  and  O_12
REMARK    2  A    between atoms: O_12  and  C_13
REMARK    3  A    between atoms: C_13  and  C_14
REMARK    4  A    between atoms: N_23  and  C_24
REMARK    5  A    between atoms: C_24  and  C_25
REMARK                            x       y       z     vdW  Elec       q    Type
REMARK                         _______ _______ _______ _____ _____    ______ ____
ROOT
ATOM      1  O   UNL     1       0.123   0.328 -22.469  0.00  0.00    -0.270 OA
ATOM      2  C   UNL     1       0.806   1.432 -22.532  0.00  0.00    +0.248 C 
ATOM      3  C   UNL     1       2.030   1.466 -22.093  0.00  0.00    +0.044 A 
ATOM      4  C   UNL     1       2.569   0.395 -21.592  0.00  0.00    +0.063 A 
ATOM      5  C   UNL     1       3.792   0.428 -21.153  0.00  0.00    +0.167 A 
ATOM      6  C   UNL     1       4.476   1.532 -21.216  0.00  0.00    +0.167 A 
ATOM      7  O   UNL     1       5.655   1.304 -20.719  0.00  0.00    -0.453 OA
ATOM      8  C   UNL     1       5.701   0.058 -20.349  0.00  0.00    +0.466 C 
ATOM      9  C   UNL     1       3.936   2.602 -21.718  0.00  0.00    +0.054 A 
ATOM     10  O   UNL     1       4.550  -0.484 -20.617  0.00  0.00    -0.453 OA
ATOM     11  C   UNL     1       2.713   2.570 -22.157  0.00  0.00    -0.027 A 
ATOM     12  C   UNL     1       2.173   3.640 -22.659  0.00  0.00    +0.043 C 
ATOM     13  C   UNL     1       2.857   4.744 -22.722  0.00  0.00    +0.041 C 
ATOM     14  C   UNL     1       2.317   5.815 -23.224  0.00  0.00    +0.119 C 
ATOM     15  C   UNL     1       1.094   5.782 -23.663  0.00  0.00    +0.033 C 
ATOM     16  C   UNL     1       0.410   4.677 -23.600  0.00  0.00    +0.025 C 
ATOM     17  C   UNL     1       0.950   3.607 -23.097  0.00  0.00    +0.084 C 
ATOM     18  N   UNL     1       0.267   2.503 -23.034  0.00  0.00    -0.290 N 
ENDROOT
BRANCH  14  19
ATOM     19  O   UNL     1       3.000   6.919 -23.287  0.00  0.00    -0.372 OA
BRANCH  19  20
ATOM     20  C   UNL     1       3.934   7.156 -22.415  0.00  0.00    +0.195 C 
BRANCH  20  21
ATOM     21  C   UNL     1       4.004   8.319 -21.837  0.00  0.00    -0.022 A 
ATOM     22  C   UNL     1       4.018   9.402 -22.556  0.00  0.00    +0.006 A 
ATOM     23  C   UNL     1       4.087  10.565 -21.978  0.00  0.00    +0.000 A 
ATOM     24  C   UNL     1       4.144  10.643 -20.681  0.00  0.00    +0.000 A 
ATOM     25  C   UNL     1       4.131   9.560 -19.962  0.00  0.00    +0.000 A 
ATOM     26  C   UNL     1       4.061   8.397 -20.541  0.00  0.00    +0.006 A 
ENDBRANCH  20  21
ENDBRANCH  19  20
ENDBRANCH  14  19
BRANCH  18  27
ATOM     27  C   UNL     1      -0.957   2.469 -23.473  0.00  0.00    +0.143 C 
BRANCH  27  28
ATOM     28  C   UNL     1      -1.937   2.813 -22.693  0.00  0.00    -0.030 A 
ATOM     29  C   UNL     1      -3.115   3.044 -23.193  0.00  0.00    +0.005 A 
ATOM     30  C   UNL     1      -4.097   3.388 -22.413  0.00  0.00    +0.000 A 
ATOM     31  C   UNL     1      -3.900   3.502 -21.133  0.00  0.00    +0.000 A 
ATOM     32  C   UNL     1      -2.723   3.271 -20.633  0.00  0.00    +0.000 A 
ATOM     33  C   UNL     1      -1.741   2.927 -21.413  0.00  0.00    +0.005 A 
ENDBRANCH  27  28
ENDBRANCH  18  27
TORSDOF 5
ENDMDL
MODEL 6
REMARK VINA RESULT:    -6.800      1.529      6.745
REMARK INTER + INTRA:          -9.308
REMARK INTER:                  -8.999
REMARK INTRA:                  -0.309
REMARK UNBOUND:                -0.521
REMARK  Name = ZINC000002049066
REMARK  5 active torsions:
REMARK  status: ('A' for Active; 'I' for Inactive)
REMARK    1  A    between atoms: C_11  and  O_12
REMARK    2  A    between atoms: O_12  and  C_13
REMARK    3  A    between atoms: C_13  and  C_14
REMARK    4  A    between atoms: N_23  and  C_24
REMARK    5  A    between atoms: C_24  and  C_25
REMARK                            x       y       z     vdW  Elec       q    Type
REMARK                         _______ _______ _______ _____ _____    ______ ____
ROOT
ATOM      1  O   UNL     1       1.571   5.938 -23.015  0.00  0.00    -0.270 OA
ATOM      2  C   UNL     1       2.817   5.567 -23.004  0.00  0.00    +0.248 C 
ATOM      3  C   UNL     1       3.729   6.366 -22.535  0.00  0.00    +0.044 A 
ATOM      4  C   UNL     1       3.395   7.536 -22.078  0.00  0.00    +0.063 A 
ATOM      5  C   UNL     1       4.306   8.335 -21.609  0.00  0.00    +0.167 A 
ATOM      6  C   UNL     1       5.553   7.964 -21.598  0.00  0.00    +0.167 A 
ATOM      7  O   UNL     1       6.255   8.931 -21.086  0.00  0.00    -0.453 OA
ATOM      8  C   UNL     1       5.443   9.900 -20.781  0.00  0.00    +0.466 C 
ATOM      9  C   UNL     1       5.886   6.795 -22.055  0.00  0.00    +0.054 A 
ATOM     10  O   UNL     1       4.238   9.532 -21.104  0.00  0.00    -0.453 OA
ATOM     11  C   UNL     1       4.975   5.995 -22.524  0.00  0.00    -0.027 A 
ATOM     12  C   UNL     1       5.309   4.825 -22.981  0.00  0.00    +0.043 C 
ATOM     13  C   UNL     1       6.555   4.455 -22.970  0.00  0.00    +0.041 C 
ATOM     14  C   UNL     1       6.889   3.285 -23.427  0.00  0.00    +0.119 C 
ATOM     15  C   UNL     1       5.977   2.485 -23.896  0.00  0.00    +0.033 C 
ATOM     16  C   UNL     1       4.731   2.856 -23.907  0.00  0.00    +0.025 C 
ATOM     17  C   UNL     1       4.397   4.026 -23.450  0.00  0.00    +0.084 C 
ATOM     18  N   UNL     1       3.151   4.397 -23.461  0.00  0.00    -0.290 N 
ENDROOT
BRANCH  14  19
ATOM     19  O   UNL     1       8.134   2.913 -23.416  0.00  0.00    -0.372 OA
BRANCH  19  20
ATOM     20  C   UNL     1       9.061   3.732 -23.818  0.00  0.00    +0.195 C 
BRANCH  20  21
ATOM     21  C   UNL     1       8.995   4.254 -25.007  0.00  0.00    -0.022 A 
ATOM     22  C   UNL     1       8.862   5.540 -25.146  0.00  0.00    +0.006 A 
ATOM     23  C   UNL     1       8.796   6.062 -26.336  0.00  0.00    +0.000 A 
ATOM     24  C   UNL     1       8.863   5.297 -27.385  0.00  0.00    +0.000 A 
ATOM     25  C   UNL     1       8.996   4.012 -27.246  0.00  0.00    +0.000 A 
ATOM     26  C   UNL     1       9.062   3.490 -26.056  0.00  0.00    +0.006 A 
ENDBRANCH  20  21
ENDBRANCH  19  20
ENDBRANCH  14  19
BRANCH  18  27
ATOM     27  C   UNL     1       2.239   3.598 -23.930  0.00  0.00    +0.143 C 
BRANCH  27  28
ATOM     28  C   UNL     1       1.471   2.938 -23.115  0.00  0.00    -0.030 A 
ATOM     29  C   UNL     1       0.184   3.115 -23.150  0.00  0.00    +0.005 A 
ATOM     30  C   UNL     1      -0.585   2.455 -22.334  0.00  0.00    +0.000 A 
ATOM     31  C   UNL     1      -0.067   1.618 -21.486  0.00  0.00    +0.000 A 
ATOM     32  C   UNL     1       1.221   1.441 -21.451  0.00  0.00    +0.000 A 
ATOM     33  C   UNL     1       1.990   2.102 -22.267  0.00  0.00    +0.005 A 
ENDBRANCH  27  28
ENDBRANCH  18  27
TORSDOF 5
ENDMDL
MODEL 7
REMARK VINA RESULT:    -6.558      3.175      7.598
REMARK INTER + INTRA:          -8.995
REMARK INTER:                  -8.590
REMARK INTRA:                  -0.405
REMARK UNBOUND:                -0.521
REMARK  Name = ZINC000002049066
REMARK  5 active torsions:
REMARK  status: ('A' for Active; 'I' for Inactive)
REMARK    1  A    between atoms: C_11  and  O_12
REMARK    2  A    between atoms: O_12  and  C_13
REMARK    3  A    between atoms: C_13  and  C_14
REMARK    4  A    between atoms: N_23  and  C_24
REMARK    5  A    between atoms: C_24  and  C_25
REMARK                            x       y       z     vdW  Elec       q    Type
REMARK                         _______ _______ _______ _____ _____    ______ ____
ROOT
ATOM      1  O   UNL     1       0.476   0.155 -22.882  0.00  0.00    -0.270 OA
ATOM      2  C   UNL     1       0.733   1.430 -22.862  0.00  0.00    +0.248 C 
ATOM      3  C   UNL     1      -0.222   2.281 -22.628  0.00  0.00    +0.044 A 
ATOM      4  C   UNL     1      -1.432   1.857 -22.413  0.00  0.00    +0.063 A 
ATOM      5  C   UNL     1      -2.386   2.708 -22.179  0.00  0.00    +0.167 A 
ATOM      6  C   UNL     1      -2.130   3.983 -22.159  0.00  0.00    +0.167 A 
ATOM      7  O   UNL     1      -3.240   4.611 -21.907  0.00  0.00    -0.453 OA
ATOM      8  C   UNL     1      -4.182   3.725 -21.771  0.00  0.00    +0.466 C 
ATOM      9  C   UNL     1      -0.921   4.406 -22.373  0.00  0.00    +0.054 A 
ATOM     10  O   UNL     1      -3.655   2.549 -21.939  0.00  0.00    -0.453 OA
ATOM     11  C   UNL     1       0.034   3.556 -22.608  0.00  0.00    -0.027 A 
ATOM     12  C   UNL     1       1.245   3.978 -22.822  0.00  0.00    +0.043 C 
ATOM     13  C   UNL     1       1.500   5.253 -22.802  0.00  0.00    +0.041 C 
ATOM     14  C   UNL     1       2.710   5.676 -23.016  0.00  0.00    +0.119 C 
ATOM     15  C   UNL     1       3.665   4.826 -23.250  0.00  0.00    +0.033 C 
ATOM     16  C   UNL     1       3.409   3.551 -23.270  0.00  0.00    +0.025 C 
ATOM     17  C   UNL     1       2.199   3.128 -23.056  0.00  0.00    +0.084 C 
ATOM     18  N   UNL     1       1.943   1.853 -23.076  0.00  0.00    -0.290 N 
ENDROOT
BRANCH  14  19
ATOM     19  O   UNL     1       2.966   6.951 -22.996  0.00  0.00    -0.372 OA
BRANCH  19  20
ATOM     20  C   UNL     1       4.007   7.395 -22.355  0.00  0.00    +0.195 C 
BRANCH  20  21
ATOM     21  C   UNL     1       4.006   8.601 -21.871  0.00  0.00    -0.022 A 
ATOM     22  C   UNL     1       3.907   9.622 -22.670  0.00  0.00    +0.006 A 
ATOM     23  C   UNL     1       3.906  10.829 -22.184  0.00  0.00    +0.000 A 
ATOM     24  C   UNL     1       4.004  11.013 -20.901  0.00  0.00    +0.000 A 
ATOM     25  C   UNL     1       4.102   9.993 -20.102  0.00  0.00    +0.000 A 
ATOM     26  C   UNL     1       4.103   8.786 -20.587  0.00  0.00    +0.006 A 
ENDBRANCH  20  21
ENDBRANCH  19  20
ENDBRANCH  14  19
BRANCH  18  27
ATOM     27  C   UNL     1       2.897   1.002 -23.310  0.00  0.00    +0.143 C 
BRANCH  27  28
ATOM     28  C   UNL     1       3.779   0.744 -22.391  0.00  0.00    -0.030 A 
ATOM     29  C   UNL     1       5.046   0.863 -22.655  0.00  0.00    +0.005 A 
ATOM     30  C   UNL     1       5.929   0.604 -21.736  0.00  0.00    +0.000 A 
ATOM     31  C   UNL     1       5.544   0.227 -20.553  0.00  0.00    +0.000 A 
ATOM     32  C   UNL     1       4.277   0.108 -20.289  0.00  0.00    +0.000 A 
ATOM     33  C   UNL     1       3.394   0.367 -21.208  0.00  0.00    +0.005 A 
ENDBRANCH  27  28
ENDBRANCH  18  27
TORSDOF 5
ENDMDL
MODEL 8
REMARK VINA RESULT:    -5.990      1.676      5.180
REMARK INTER + INTRA:          -8.261
REMARK INTER:                  -8.218
REMARK INTRA:                  -0.044
REMARK UNBOUND:                -0.521
REMARK  Name = ZINC000002049066
REMARK  5 active torsions:
REMARK  status: ('A' for Active; 'I' for Inactive)
REMARK    1  A    between atoms: C_11  and  O_12
REMARK    2  A    between atoms: O_12  and  C_13
REMARK    3  A    between atoms: C_13  and  C_14
REMARK    4  A    between atoms: N_23  and  C_24
REMARK    5  A    between atoms: C_24  and  C_25
REMARK                            x       y       z     vdW  Elec       q    Type
REMARK                         _______ _______ _______ _____ _____    ______ ____
ROOT
ATOM      1  O   UNL     1       6.384   7.501 -21.472  0.00  0.00    -0.270 OA
ATOM      2  C   UNL     1       5.583   6.656 -22.049  0.00  0.00    +0.248 C 
ATOM      3  C   UNL     1       6.068   5.623 -22.673  0.00  0.00    +0.044 A 
ATOM      4  C   UNL     1       7.354   5.437 -22.719  0.00  0.00    +0.063 A 
ATOM      5  C   UNL     1       7.839   4.405 -23.342  0.00  0.00    +0.167 A 
ATOM      6  C   UNL     1       7.039   3.559 -23.920  0.00  0.00    +0.167 A 
ATOM      7  O   UNL     1       7.764   2.629 -24.466  0.00  0.00    -0.453 OA
ATOM      8  C   UNL     1       9.013   2.899 -24.226  0.00  0.00    +0.466 C 
ATOM      9  C   UNL     1       5.754   3.745 -23.874  0.00  0.00    +0.054 A 
ATOM     10  O   UNL     1       9.060   3.997 -23.531  0.00  0.00    -0.453 OA
ATOM     11  C   UNL     1       5.268   4.777 -23.251  0.00  0.00    -0.027 A 
ATOM     12  C   UNL     1       3.982   4.964 -23.205  0.00  0.00    +0.043 C 
ATOM     13  C   UNL     1       3.182   4.117 -23.783  0.00  0.00    +0.041 C 
ATOM     14  C   UNL     1       1.897   4.304 -23.737  0.00  0.00    +0.119 C 
ATOM     15  C   UNL     1       1.410   5.336 -23.114  0.00  0.00    +0.033 C 
ATOM     16  C   UNL     1       2.211   6.183 -22.535  0.00  0.00    +0.025 C 
ATOM     17  C   UNL     1       3.497   5.996 -22.582  0.00  0.00    +0.084 C 
ATOM     18  N   UNL     1       4.297   6.842 -22.004  0.00  0.00    -0.290 N 
ENDROOT
BRANCH  14  19
ATOM     19  O   UNL     1       1.096   3.458 -24.315  0.00  0.00    -0.372 OA
BRANCH  19  20
ATOM     20  C   UNL     1       0.574   2.485 -23.629  0.00  0.00    +0.195 C 
BRANCH  20  21
ATOM     21  C   UNL     1      -0.630   2.599 -23.151  0.00  0.00    -0.022 A 
ATOM     22  C   UNL     1      -1.633   2.790 -23.955  0.00  0.00    +0.006 A 
ATOM     23  C   UNL     1      -2.837   2.904 -23.476  0.00  0.00    +0.000 A 
ATOM     24  C   UNL     1      -3.036   2.827 -22.194  0.00  0.00    +0.000 A 
ATOM     25  C   UNL     1      -2.032   2.636 -21.390  0.00  0.00    +0.000 A 
ATOM     26  C   UNL     1      -0.828   2.522 -21.869  0.00  0.00    +0.006 A 
ENDBRANCH  20  21
ENDBRANCH  19  20
ENDBRANCH  14  19
BRANCH  18  27
ATOM     27  C   UNL     1       3.812   7.874 -21.380  0.00  0.00    +0.143 C 
BRANCH  27  28
ATOM     28  C   UNL     1       4.215   9.070 -21.690  0.00  0.00    -0.030 A 
ATOM     29  C   UNL     1       4.850   9.789 -20.812  0.00  0.00    +0.005 A 
ATOM     30  C   UNL     1       5.254  10.986 -21.122  0.00  0.00    +0.000 A 
ATOM     31  C   UNL     1       5.022  11.463 -22.308  0.00  0.00    +0.000 A 
ATOM     32  C   UNL     1       4.388  10.744 -23.186  0.00  0.00    +0.000 A 
ATOM     33  C   UNL     1       3.984   9.547 -22.876  0.00  0.00    +0.005 A 
ENDBRANCH  27  28
ENDBRANCH  18  27
TORSDOF 5
ENDMDL
