MODEL 1
REMARK VINA RESULT:   -11.004      0.000      0.000
REMARK INTER + INTRA:         -12.078
REMARK INTER:                 -11.961
REMARK INTRA:                  -0.116
REMARK UNBOUND:                -0.109
REMARK  Name = ZINC000096316348
REMARK  3 active torsions:
REMARK  status: ('A' for Active; 'I' for Inactive)
REMARK    1  A    between atoms: C_1  and  O_2
REMARK    2  A    between atoms: O_2  and  C_3
REMARK    3  A    between atoms: C_11  and  O_12
REMARK                            x       y       z     vdW  Elec       q    Type
REMARK                         _______ _______ _______ _____ _____    ______ ____
ROOT
ATOM      1  C   UNL     1       0.852   2.654 -23.933  0.00  0.00    +0.162 A 
ATOM      2  C   UNL     1       1.002   2.184 -22.767  0.00  0.00    +0.050 A 
ATOM      3  C   UNL     1       0.023   2.075 -21.997  0.00  0.00    +0.008 A 
ATOM      4  C   UNL     1      -1.113   2.433 -22.382  0.00  0.00    -0.038 A 
ATOM      5  C   UNL     1      -1.286   2.903 -23.537  0.00  0.00    +0.012 A 
ATOM      6  C   UNL     1      -2.422   3.258 -23.915  0.00  0.00    +0.049 C 
ATOM      7  C   UNL     1      -3.666   3.696 -24.458  0.00  0.00    +0.035 C 
ATOM      8  C   UNL     1      -4.789   3.585 -23.612  0.00  0.00    +0.109 C 
ATOM      9  N   UNL     1      -4.584   3.057 -22.321  0.00  0.00    -0.300 N 
ATOM     10  C   UNL     1      -5.529   2.920 -21.495  0.00  0.00    +0.328 C 
ATOM     11  O   UNL     1      -6.698   3.254 -21.801  0.00  0.00    -0.279 OA
ATOM     12  C   UNL     1      -3.252   2.681 -21.984  0.00  0.00    +0.088 C 
ATOM     13  C   UNL     1      -3.404   3.150 -23.148  0.00  0.00    +0.046 C 
ATOM     14  C   UNL     1      -4.554   3.511 -23.532  0.00  0.00    -0.022 C 
ATOM     15  C   UNL     1      -4.708   3.976 -24.683  0.00  0.00    +0.004 C 
ATOM     16  C   UNL     1      -3.723   4.090 -25.468  0.00  0.00    +0.178 C 
ATOM     17  C   UNL     1      -2.587   3.732 -25.083  0.00  0.00    +0.217 C 
ATOM     18  O   UNL     1      -1.123   3.591 -25.431  0.00  0.00    -0.481 OA
ATOM     19  C   UNL     1      -2.115   2.323 -21.600  0.00  0.00    +0.058 C 
ATOM     20  C   UNL     1      -0.299   3.015 -24.317  0.00  0.00    +0.167 A 
ENDROOT
BRANCH   1  22
ATOM     21  C   UNL     1       2.696   1.856 -24.745  0.00  0.00    +0.277 C 
ATOM     22  O   UNL     1       1.834   2.762 -24.699  0.00  0.00    -0.491 OA
ENDBRANCH   1  22
BRANCH  16  23
ATOM     23  O   UNL     1      -3.883   4.555 -26.616  0.00  0.00    -0.384 OA
ATOM     24  H   UNL     1      -4.511   4.000 -27.106  0.00  0.00    +0.210 HD
ENDBRANCH  16  23
TORSDOF 2
ENDMDL
MODEL 2
REMARK VINA RESULT:   -10.630      1.940      5.307
REMARK INTER + INTRA:         -11.670
REMARK INTER:                 -11.563
REMARK INTRA:                  -0.107
REMARK UNBOUND:                -0.109
REMARK  Name = ZINC000096316348
REMARK  3 active torsions:
REMARK  status: ('A' for Active; 'I' for Inactive)
REMARK    1  A    between atoms: C_1  and  O_2
REMARK    2  A    between atoms: O_2  and  C_3
REMARK    3  A    between atoms: C_11  and  O_12
REMARK                            x       y       z     vdW  Elec       q    Type
REMARK                         _______ _______ _______ _____ _____    ______ ____
ROOT
ATOM      1  C   UNL     1      -3.522   3.500 -22.994  0.00  0.00    +0.162 A 
ATOM      2  C   UNL     1      -3.682   2.868 -21.909  0.00  0.00    +0.050 A 
ATOM      3  C   UNL     1      -2.732   2.237 -21.397  0.00  0.00    +0.008 A 
ATOM      4  C   UNL     1      -1.615   2.229 -21.962  0.00  0.00    -0.038 A 
ATOM      5  C   UNL     1      -1.432   2.850 -23.042  0.00  0.00    +0.012 A 
ATOM      6  C   UNL     1      -0.316   2.838 -23.601  0.00  0.00    +0.049 C 
ATOM      7  C   UNL     1       0.909   2.898 -24.329  0.00  0.00    +0.035 C 
ATOM      8  C   UNL     1       1.999   2.195 -23.776  0.00  0.00    +0.109 C 
ATOM      9  N   UNL     1       1.783   1.503 -22.566  0.00  0.00    -0.300 N 
ATOM     10  C   UNL     1       2.699   0.846 -21.997  0.00  0.00    +0.328 C 
ATOM     11  O   UNL     1       3.847   0.787 -22.497  0.00  0.00    -0.279 OA
ATOM     12  C   UNL     1       0.475   1.577 -22.008  0.00  0.00    +0.088 C 
ATOM     13  C   UNL     1       0.637   2.207 -23.092  0.00  0.00    +0.046 C 
ATOM     14  C   UNL     1       1.768   2.197 -23.659  0.00  0.00    -0.022 C 
ATOM     15  C   UNL     1       1.932   2.819 -24.731  0.00  0.00    +0.004 C 
ATOM     16  C   UNL     1       0.977   3.460 -25.255  0.00  0.00    +0.178 C 
ATOM     17  C   UNL     1      -0.140   3.468 -24.690  0.00  0.00    +0.217 C 
ATOM     18  O   UNL     1      -1.570   3.957 -24.728  0.00  0.00    -0.481 OA
ATOM     19  C   UNL     1      -0.643   1.586 -21.444  0.00  0.00    +0.058 C 
ATOM     20  C   UNL     1      -2.390   3.489 -23.562  0.00  0.00    +0.167 A 
ENDROOT
BRANCH   1  22
ATOM     21  C   UNL     1      -4.959   3.762 -24.595  0.00  0.00    +0.277 C 
ATOM     22  O   UNL     1      -4.474   4.130 -23.502  0.00  0.00    -0.491 OA
ENDBRANCH   1  22
BRANCH  16  23
ATOM     23  O   UNL     1       1.147   4.080 -26.327  0.00  0.00    -0.384 OA
ATOM     24  H   UNL     1       0.360   4.615 -26.519  0.00  0.00    +0.210 HD
ENDBRANCH  16  23
TORSDOF 2
ENDMDL
MODEL 3
REMARK VINA RESULT:   -10.431      1.979      5.820
REMARK INTER + INTRA:         -11.454
REMARK INTER:                 -11.310
REMARK INTRA:                  -0.145
REMARK UNBOUND:                -0.109
REMARK  Name = ZINC000096316348
REMARK  3 active torsions:
REMARK  status: ('A' for Active; 'I' for Inactive)
REMARK    1  A    between atoms: C_1  and  O_2
REMARK    2  A    between atoms: O_2  and  C_3
REMARK    3  A    between atoms: C_11  and  O_12
REMARK                            x       y       z     vdW  Elec       q    Type
REMARK                         _______ _______ _______ _____ _____    ______ ____
ROOT
ATOM      1  C   UNL     1      -4.607   3.577 -22.604  0.00  0.00    +0.162 A 
ATOM      2  C   UNL     1      -4.805   4.055 -23.759  0.00  0.00    +0.050 A 
ATOM      3  C   UNL     1      -3.877   4.096 -24.596  0.00  0.00    +0.008 A 
ATOM      4  C   UNL     1      -2.743   3.662 -24.288  0.00  0.00    -0.038 A 
ATOM      5  C   UNL     1      -2.523   3.182 -23.145  0.00  0.00    +0.012 A 
ATOM      6  C   UNL     1      -1.391   2.751 -22.844  0.00  0.00    +0.049 C 
ATOM      7  C   UNL     1      -0.145   2.229 -22.387  0.00  0.00    +0.035 C 
ATOM      8  C   UNL     1       0.922   2.262 -23.309  0.00  0.00    +0.109 C 
ATOM      9  N   UNL     1       0.664   2.802 -24.586  0.00  0.00    -0.300 N 
ATOM     10  C   UNL     1       1.557   2.873 -25.476  0.00  0.00    +0.328 C 
ATOM     11  O   UNL     1       2.718   2.460 -25.250  0.00  0.00    -0.279 OA
ATOM     12  C   UNL     1      -0.659   3.268 -24.832  0.00  0.00    +0.088 C 
ATOM     13  C   UNL     1      -0.459   2.790 -23.679  0.00  0.00    +0.046 C 
ATOM     14  C   UNL     1       0.688   2.352 -23.373  0.00  0.00    -0.022 C 
ATOM     15  C   UNL     1       0.889   1.879 -22.233  0.00  0.00    +0.004 C 
ATOM     16  C   UNL     1      -0.044   1.834 -21.381  0.00  0.00    +0.178 C 
ATOM     17  C   UNL     1      -1.177   2.268 -21.689  0.00  0.00    +0.217 C 
ATOM     18  O   UNL     1      -2.601   2.509 -21.241  0.00  0.00    -0.481 OA
ATOM     19  C   UNL     1      -1.793   3.702 -25.138  0.00  0.00    +0.058 C 
ATOM     20  C   UNL     1      -3.459   3.139 -22.298  0.00  0.00    +0.167 A 
ENDROOT
BRANCH   1  22
ATOM     21  C   UNL     1      -6.338   2.576 -21.769  0.00  0.00    +0.277 C 
ATOM     22  O   UNL     1      -5.538   3.538 -21.771  0.00  0.00    -0.491 OA
ENDBRANCH   1  22
BRANCH  16  23
ATOM     23  O   UNL     1       0.163   1.360 -20.244  0.00  0.00    -0.384 OA
ATOM     24  H   UNL     1      -0.594   0.814 -19.978  0.00  0.00    +0.210 HD
ENDBRANCH  16  23
TORSDOF 2
ENDMDL
MODEL 4
REMARK VINA RESULT:   -10.421      1.820      3.266
REMARK INTER + INTRA:         -11.443
REMARK INTER:                 -11.334
REMARK INTRA:                  -0.109
REMARK UNBOUND:                -0.109
REMARK  Name = ZINC000096316348
REMARK  3 active torsions:
REMARK  status: ('A' for Active; 'I' for Inactive)
REMARK    1  A    between atoms: C_1  and  O_2
REMARK    2  A    between atoms: O_2  and  C_3
REMARK    3  A    between atoms: C_11  and  O_12
REMARK                            x       y       z     vdW  Elec       q    Type
REMARK                         _______ _______ _______ _____ _____    ______ ____
ROOT
ATOM      1  C   UNL     1       1.507   1.668 -22.076  0.00  0.00    +0.162 A 
ATOM      2  C   UNL     1       2.067   2.021 -23.154  0.00  0.00    +0.050 A 
ATOM      3  C   UNL     1       1.411   2.591 -24.053  0.00  0.00    +0.008 A 
ATOM      4  C   UNL     1       0.190   2.813 -23.884  0.00  0.00    -0.038 A 
ATOM      5  C   UNL     1      -0.388   2.471 -22.820  0.00  0.00    +0.012 A 
ATOM      6  C   UNL     1      -1.606   2.696 -22.658  0.00  0.00    +0.049 C 
ATOM      7  C   UNL     1      -2.986   2.898 -22.359  0.00  0.00    +0.035 C 
ATOM      8  C   UNL     1      -3.753   3.538 -23.354  0.00  0.00    +0.109 C 
ATOM      9  N   UNL     1      -3.094   3.917 -24.543  0.00  0.00    -0.300 N 
ATOM     10  C   UNL     1      -3.699   4.495 -25.489  0.00  0.00    +0.328 C 
ATOM     11  O   UNL     1      -4.922   4.755 -25.401  0.00  0.00    -0.279 OA
ATOM     12  C   UNL     1      -1.705   3.617 -24.632  0.00  0.00    +0.088 C 
ATOM     13  C   UNL     1      -2.267   3.265 -23.555  0.00  0.00    +0.046 C 
ATOM     14  C   UNL     1      -3.500   3.492 -23.390  0.00  0.00    -0.022 C 
ATOM     15  C   UNL     1      -4.059   3.146 -22.326  0.00  0.00    +0.004 C 
ATOM     16  C   UNL     1      -3.403   2.570 -21.412  0.00  0.00    +0.178 C 
ATOM     17  C   UNL     1      -2.182   2.347 -21.581  0.00  0.00    +0.217 C 
ATOM     18  O   UNL     1      -0.912   1.771 -20.998  0.00  0.00    -0.481 OA
ATOM     19  C   UNL     1      -0.484   3.394 -24.799  0.00  0.00    +0.058 C 
ATOM     20  C   UNL     1       0.272   1.896 -21.910  0.00  0.00    +0.167 A 
ENDROOT
BRANCH   1  22
ATOM     21  C   UNL     1       3.351   0.754 -21.396  0.00  0.00    +0.277 C 
ATOM     22  O   UNL     1       2.167   1.099 -21.180  0.00  0.00    -0.491 OA
ENDBRANCH   1  22
BRANCH  16  23
ATOM     23  O   UNL     1      -3.967   2.226 -20.352  0.00  0.00    -0.384 OA
ATOM     24  H   UNL     1      -4.130   1.269 -20.368  0.00  0.00    +0.210 HD
ENDBRANCH  16  23
TORSDOF 2
ENDMDL
MODEL 5
REMARK VINA RESULT:   -10.138      2.968      6.722
REMARK INTER + INTRA:         -11.136
REMARK INTER:                 -11.014
REMARK INTRA:                  -0.121
REMARK UNBOUND:                -0.109
REMARK  Name = ZINC000096316348
REMARK  3 active torsions:
REMARK  status: ('A' for Active; 'I' for Inactive)
REMARK    1  A    between atoms: C_1  and  O_2
REMARK    2  A    between atoms: O_2  and  C_3
REMARK    3  A    between atoms: C_11  and  O_12
REMARK                            x       y       z     vdW  Elec       q    Type
REMARK                         _______ _______ _______ _____ _____    ______ ____
ROOT
ATOM      1  C   UNL     1      -1.752   3.308 -23.227  0.00  0.00    +0.162 A 
ATOM      2  C   UNL     1      -1.775   4.569 -23.325  0.00  0.00    +0.050 A 
ATOM      3  C   UNL     1      -0.710   5.224 -23.333  0.00  0.00    +0.008 A 
ATOM      4  C   UNL     1       0.387   4.627 -23.245  0.00  0.00    -0.038 A 
ATOM      5  C   UNL     1       0.435   3.373 -23.146  0.00  0.00    +0.012 A 
ATOM      6  C   UNL     1       1.532   2.784 -23.058  0.00  0.00    +0.049 C 
ATOM      7  C   UNL     1       2.720   2.002 -22.951  0.00  0.00    +0.035 C 
ATOM      8  C   UNL     1       3.938   2.713 -22.958  0.00  0.00    +0.109 C 
ATOM      9  N   UNL     1       3.872   4.118 -23.069  0.00  0.00    -0.300 N 
ATOM     10  C   UNL     1       4.909   4.838 -23.084  0.00  0.00    +0.328 C 
ATOM     11  O   UNL     1       6.048   4.320 -22.999  0.00  0.00    -0.279 OA
ATOM     12  C   UNL     1       2.574   4.696 -23.164  0.00  0.00    +0.088 C 
ATOM     13  C   UNL     1       2.600   3.436 -23.066  0.00  0.00    +0.046 C 
ATOM     14  C   UNL     1       3.711   2.837 -22.977  0.00  0.00    -0.022 C 
ATOM     15  C   UNL     1       3.740   1.591 -22.880  0.00  0.00    +0.004 C 
ATOM     16  C   UNL     1       2.668   0.921 -22.870  0.00  0.00    +0.178 C 
ATOM     17  C   UNL     1       1.571   1.518 -22.959  0.00  0.00    +0.217 C 
ATOM     18  O   UNL     1       0.066   1.391 -23.008  0.00  0.00    -0.481 OA
ATOM     19  C   UNL     1       1.477   5.291 -23.253  0.00  0.00    +0.058 C 
ATOM     20  C   UNL     1      -0.639   2.709 -23.137  0.00  0.00    +0.167 A 
ENDROOT
BRANCH   1  22
ATOM     21  C   UNL     1      -3.744   2.978 -22.439  0.00  0.00    +0.277 C 
ATOM     22  O   UNL     1      -2.819   2.657 -23.219  0.00  0.00    -0.491 OA
ENDBRANCH   1  22
BRANCH  16  23
ATOM     23  O   UNL     1       2.703  -0.324 -22.773  0.00  0.00    -0.384 OA
ATOM     24  H   UNL     1       3.597  -0.640 -22.984  0.00  0.00    +0.210 HD
ENDBRANCH  16  23
TORSDOF 2
ENDMDL
MODEL 6
REMARK VINA RESULT:    -9.759      2.113      3.617
REMARK INTER + INTRA:         -10.723
REMARK INTER:                 -10.575
REMARK INTRA:                  -0.148
REMARK UNBOUND:                -0.109
REMARK  Name = ZINC000096316348
REMARK  3 active torsions:
REMARK  status: ('A' for Active; 'I' for Inactive)
REMARK    1  A    between atoms: C_1  and  O_2
REMARK    2  A    between atoms: O_2  and  C_3
REMARK    3  A    between atoms: C_11  and  O_12
REMARK                            x       y       z     vdW  Elec       q    Type
REMARK                         _______ _______ _______ _____ _____    ______ ____
ROOT
ATOM      1  C   UNL     1       3.935   1.633 -22.112  0.00  0.00    +0.162 A 
ATOM      2  C   UNL     1       3.537   1.111 -21.030  0.00  0.00    +0.050 A 
ATOM      3  C   UNL     1       2.322   1.104 -20.739  0.00  0.00    +0.008 A 
ATOM      4  C   UNL     1       1.492   1.618 -21.523  0.00  0.00    -0.038 A 
ATOM      5  C   UNL     1       1.864   2.142 -22.605  0.00  0.00    +0.012 A 
ATOM      6  C   UNL     1       1.032   2.653 -23.383  0.00  0.00    +0.049 C 
ATOM      7  C   UNL     1       0.178   3.264 -24.348  0.00  0.00    +0.035 C 
ATOM      8  C   UNL     1      -1.200   3.272 -24.047  0.00  0.00    +0.109 C 
ATOM      9  N   UNL     1      -1.605   2.681 -22.832  0.00  0.00    -0.300 N 
ATOM     10  C   UNL     1      -2.817   2.641 -22.479  0.00  0.00    +0.328 C 
ATOM     11  O   UNL     1      -3.711   3.133 -23.206  0.00  0.00    -0.279 OA
ATOM     12  C   UNL     1      -0.580   2.126 -22.014  0.00  0.00    +0.088 C 
ATOM     13  C   UNL     1      -0.186   2.648 -23.095  0.00  0.00    +0.046 C 
ATOM     14  C   UNL     1      -1.028   3.166 -23.885  0.00  0.00    -0.022 C 
ATOM     15  C   UNL     1      -0.641   3.683 -24.956  0.00  0.00    +0.004 C 
ATOM     16  C   UNL     1       0.586   3.694 -25.258  0.00  0.00    +0.178 C 
ATOM     17  C   UNL     1       1.416   3.181 -24.473  0.00  0.00    +0.217 C 
ATOM     18  O   UNL     1       2.869   2.863 -24.204  0.00  0.00    -0.481 OA
ATOM     19  C   UNL     1       0.250   1.613 -21.230  0.00  0.00    +0.058 C 
ATOM     20  C   UNL     1       3.092   2.151 -22.903  0.00  0.00    +0.167 A 
ENDROOT
BRANCH   1  22
ATOM     21  C   UNL     1       5.842   2.659 -22.190  0.00  0.00    +0.277 C 
ATOM     22  O   UNL     1       5.152   1.637 -22.400  0.00  0.00    -0.491 OA
ENDBRANCH   1  22
BRANCH  16  23
ATOM     23  O   UNL     1       0.967   4.212 -26.329  0.00  0.00    -0.384 OA
ATOM     24  H   UNL     1       1.854   4.587 -26.210  0.00  0.00    +0.210 HD
ENDBRANCH  16  23
TORSDOF 2
ENDMDL
MODEL 7
REMARK VINA RESULT:    -9.207      2.859      6.244
REMARK INTER + INTRA:         -10.122
REMARK INTER:                 -10.014
REMARK INTRA:                  -0.108
REMARK UNBOUND:                -0.109
REMARK  Name = ZINC000096316348
REMARK  3 active torsions:
REMARK  status: ('A' for Active; 'I' for Inactive)
REMARK    1  A    between atoms: C_1  and  O_2
REMARK    2  A    between atoms: O_2  and  C_3
REMARK    3  A    between atoms: C_11  and  O_12
REMARK                            x       y       z     vdW  Elec       q    Type
REMARK                         _______ _______ _______ _____ _____    ______ ____
ROOT
ATOM      1  C   UNL     1      -2.120   3.109 -22.176  0.00  0.00    +0.162 A 
ATOM      2  C   UNL     1      -2.146   1.893 -21.826  0.00  0.00    +0.050 A 
ATOM      3  C   UNL     1      -1.089   1.230 -21.760  0.00  0.00    +0.008 A 
ATOM      4  C   UNL     1       0.004   1.772 -22.041  0.00  0.00    -0.038 A 
ATOM      5  C   UNL     1       0.054   2.980 -22.391  0.00  0.00    +0.012 A 
ATOM      6  C   UNL     1       1.147   3.516 -22.671  0.00  0.00    +0.049 C 
ATOM      7  C   UNL     1       2.331   4.235 -23.013  0.00  0.00    +0.035 C 
ATOM      8  C   UNL     1       3.540   3.513 -22.947  0.00  0.00    +0.109 C 
ATOM      9  N   UNL     1       3.472   2.160 -22.554  0.00  0.00    -0.300 N 
ATOM     10  C   UNL     1       4.502   1.435 -22.467  0.00  0.00    +0.328 C 
ATOM     11  O   UNL     1       5.635   1.900 -22.731  0.00  0.00    -0.279 OA
ATOM     12  C   UNL     1       2.179   1.641 -22.256  0.00  0.00    +0.088 C 
ATOM     13  C   UNL     1       2.208   2.856 -22.606  0.00  0.00    +0.046 C 
ATOM     14  C   UNL     1       3.314   3.400 -22.889  0.00  0.00    -0.022 C 
ATOM     15  C   UNL     1       3.346   4.601 -23.235  0.00  0.00    +0.004 C 
ATOM     16  C   UNL     1       2.281   5.279 -23.305  0.00  0.00    +0.178 C 
ATOM     17  C   UNL     1       1.189   4.736 -23.023  0.00  0.00    +0.217 C 
ATOM     18  O   UNL     1      -0.308   4.904 -22.897  0.00  0.00    -0.481 OA
ATOM     19  C   UNL     1       1.086   1.100 -21.975  0.00  0.00    +0.058 C 
ATOM     20  C   UNL     1      -1.012   3.654 -22.459  0.00  0.00    +0.167 A 
ENDROOT
BRANCH   1  22
ATOM     21  C   UNL     1      -4.278   3.215 -22.010  0.00  0.00    +0.277 C 
ATOM     22  O   UNL     1      -3.180   3.768 -22.241  0.00  0.00    -0.491 OA
ENDBRANCH   1  22
BRANCH  16  23
ATOM     23  O   UNL     1       2.320   6.479 -23.651  0.00  0.00    -0.384 OA
ATOM     24  H   UNL     1       1.417   6.834 -23.689  0.00  0.00    +0.210 HD
ENDBRANCH  16  23
TORSDOF 2
ENDMDL
MODEL 8
REMARK VINA RESULT:    -8.530      4.993      7.429
REMARK INTER + INTRA:          -9.387
REMARK INTER:                  -9.277
REMARK INTRA:                  -0.110
REMARK UNBOUND:                -0.109
REMARK  Name = ZINC000096316348
REMARK  3 active torsions:
REMARK  status: ('A' for Active; 'I' for Inactive)
REMARK    1  A    between atoms: C_1  and  O_2
REMARK    2  A    between atoms: O_2  and  C_3
REMARK    3  A    between atoms: C_11  and  O_12
REMARK                            x       y       z     vdW  Elec       q    Type
REMARK                         _______ _______ _______ _____ _____    ______ ____
ROOT
ATOM      1  C   UNL     1       6.025   7.006 -21.856  0.00  0.00    +0.162 A 
ATOM      2  C   UNL     1       7.076   6.303 -21.913  0.00  0.00    +0.050 A 
ATOM      3  C   UNL     1       7.032   5.133 -22.352  0.00  0.00    +0.008 A 
ATOM      4  C   UNL     1       5.941   4.654 -22.736  0.00  0.00    -0.038 A 
ATOM      5  C   UNL     1       4.884   5.334 -22.688  0.00  0.00    +0.012 A 
ATOM      6  C   UNL     1       3.798   4.850 -23.074  0.00  0.00    +0.049 C 
ATOM      7  C   UNL     1       2.506   4.409 -23.483  0.00  0.00    +0.035 C 
ATOM      8  C   UNL     1       2.425   3.092 -23.982  0.00  0.00    +0.109 C 
ATOM      9  N   UNL     1       3.617   2.339 -24.031  0.00  0.00    -0.300 N 
ATOM     10  C   UNL     1       3.642   1.153 -24.462  0.00  0.00    +0.328 C 
ATOM     11  O   UNL     1       2.593   0.598 -24.867  0.00  0.00    -0.279 OA
ATOM     12  C   UNL     1       4.802   2.979 -23.569  0.00  0.00    +0.088 C 
ATOM     13  C   UNL     1       3.751   3.680 -23.513  0.00  0.00    +0.046 C 
ATOM     14  C   UNL     1       2.651   3.191 -23.903  0.00  0.00    -0.022 C 
ATOM     15  C   UNL     1       1.609   3.881 -23.848  0.00  0.00    +0.004 C 
ATOM     16  C   UNL     1       1.645   5.065 -23.406  0.00  0.00    +0.178 C 
ATOM     17  C   UNL     1       2.735   5.544 -23.022  0.00  0.00    +0.217 C 
ATOM     18  O   UNL     1       3.454   6.742 -22.444  0.00  0.00    -0.481 OA
ATOM     19  C   UNL     1       5.892   3.460 -23.185  0.00  0.00    +0.058 C 
ATOM     20  C   UNL     1       4.924   6.516 -22.246  0.00  0.00    +0.167 A 
ENDROOT
BRANCH   1  22
ATOM     21  C   UNL     1       7.077   8.565 -20.780  0.00  0.00    +0.277 C 
ATOM     22  O   UNL     1       6.073   8.175 -21.417  0.00  0.00    -0.491 OA
ENDBRANCH   1  22
BRANCH  16  23
ATOM     23  O   UNL     1       0.601   5.750 -23.354  0.00  0.00    -0.384 OA
ATOM     24  H   UNL     1       0.592   6.264 -22.531  0.00  0.00    +0.210 HD
ENDBRANCH  16  23
TORSDOF 2
ENDMDL
MODEL 9
REMARK VINA RESULT:    -8.408      3.857      6.563
REMARK INTER + INTRA:          -9.254
REMARK INTER:                  -9.145
REMARK INTRA:                  -0.109
REMARK UNBOUND:                -0.109
REMARK  Name = ZINC000096316348
REMARK  3 active torsions:
REMARK  status: ('A' for Active; 'I' for Inactive)
REMARK    1  A    between atoms: C_1  and  O_2
REMARK    2  A    between atoms: O_2  and  C_3
REMARK    3  A    between atoms: C_11  and  O_12
REMARK                            x       y       z     vdW  Elec       q    Type
REMARK                         _______ _______ _______ _____ _____    ______ ____
ROOT
ATOM      1  C   UNL     1       6.600   4.784 -22.600  0.00  0.00    +0.162 A 
ATOM      2  C   UNL     1       6.242   5.932 -22.204  0.00  0.00    +0.050 A 
ATOM      3  C   UNL     1       5.047   6.289 -22.292  0.00  0.00    +0.008 A 
ATOM      4  C   UNL     1       4.199   5.506 -22.777  0.00  0.00    -0.038 A 
ATOM      5  C   UNL     1       4.531   4.360 -23.177  0.00  0.00    +0.012 A 
ATOM      6  C   UNL     1       3.680   3.584 -23.660  0.00  0.00    +0.049 C 
ATOM      7  C   UNL     1       2.802   2.613 -24.226  0.00  0.00    +0.035 C 
ATOM      8  C   UNL     1       1.448   2.987 -24.339  0.00  0.00    +0.109 C 
ATOM      9  N   UNL     1       1.086   4.274 -23.887  0.00  0.00    -0.300 N 
ATOM     10  C   UNL     1      -0.102   4.696 -23.947  0.00  0.00    +0.328 C 
ATOM     11  O   UNL     1      -1.013   3.975 -24.419  0.00  0.00    -0.279 OA
ATOM     12  C   UNL     1       2.129   5.084 -23.353  0.00  0.00    +0.088 C 
ATOM     13  C   UNL     1       2.484   3.938 -23.750  0.00  0.00    +0.046 C 
ATOM     14  C   UNL     1       1.623   3.150 -24.239  0.00  0.00    -0.022 C 
ATOM     15  C   UNL     1       1.970   2.015 -24.632  0.00  0.00    +0.004 C 
ATOM     16  C   UNL     1       3.176   1.645 -24.546  0.00  0.00    +0.178 C 
ATOM     17  C   UNL     1       4.025   2.429 -24.062  0.00  0.00    +0.217 C 
ATOM     18  O   UNL     1       5.474   2.646 -23.690  0.00  0.00    -0.481 OA
ATOM     19  C   UNL     1       2.978   5.866 -22.869  0.00  0.00    +0.058 C 
ATOM     20  C   UNL     1       5.737   3.996 -23.090  0.00  0.00    +0.167 A 
ENDROOT
BRANCH   1  22
ATOM     21  C   UNL     1       8.666   5.253 -22.145  0.00  0.00    +0.277 C 
ATOM     22  O   UNL     1       7.795   4.431 -22.510  0.00  0.00    -0.491 OA
ENDBRANCH   1  22
BRANCH  16  23
ATOM     23  O   UNL     1       3.518   0.510 -24.941  0.00  0.00    -0.384 OA
ATOM     24  H   UNL     1       2.802  -0.122 -24.766  0.00  0.00    +0.210 HD
ENDBRANCH  16  23
TORSDOF 2
ENDMDL
