MODEL 1
REMARK VINA RESULT:    -7.602      0.000      0.000
REMARK INTER + INTRA:         -10.539
REMARK INTER:                 -10.073
REMARK INTRA:                  -0.465
REMARK UNBOUND:                -0.715
REMARK  Name = O=C1c2cc3c(cc2[C@@H]2C[C@H](OCc4ccccc4)CC[C@@H]2N1Cc1ccccc1)OCO3     ZINC000247798830
REMARK  5 active torsions:
REMARK  status: ('A' for Active; 'I' for Inactive)
REMARK    1  A    between atoms: C_11  and  O_12
REMARK    2  A    between atoms: O_12  and  C_13
REMARK    3  A    between atoms: C_13  and  C_14
REMARK    4  A    between atoms: N_23  and  C_24
REMARK    5  A    between atoms: C_24  and  C_25
REMARK                            x       y       z     vdW  Elec       q    Type
REMARK                         _______ _______ _______ _____ _____    ______ ____
ROOT
ATOM      1  O   UNL     1       5.047   2.362 -23.812  0.00  0.00    -0.270 OA
ATOM      2  C   UNL     1       4.723   3.554 -23.406  0.00  0.00    +0.248 C 
ATOM      3  C   UNL     1       3.486   3.949 -23.472  0.00  0.00    +0.044 A 
ATOM      4  C   UNL     1       2.574   3.152 -23.944  0.00  0.00    +0.063 A 
ATOM      5  C   UNL     1       1.338   3.547 -24.011  0.00  0.00    +0.167 A 
ATOM      6  C   UNL     1       1.013   4.740 -23.605  0.00  0.00    +0.167 A 
ATOM      7  O   UNL     1      -0.267   4.887 -23.775  0.00  0.00    -0.453 OA
ATOM      8  C   UNL     1      -0.735   3.787 -24.286  0.00  0.00    +0.466 C 
ATOM      9  C   UNL     1       1.925   5.535 -23.133  0.00  0.00    +0.054 A 
ATOM     10  O   UNL     1       0.257   2.958 -24.432  0.00  0.00    -0.453 OA
ATOM     11  C   UNL     1       3.162   5.141 -23.066  0.00  0.00    -0.027 A 
ATOM     12  C   UNL     1       4.075   5.937 -22.594  0.00  0.00    +0.043 C 
ATOM     13  C   UNL     1       3.749   7.129 -22.188  0.00  0.00    +0.041 C 
ATOM     14  C   UNL     1       4.662   7.925 -21.716  0.00  0.00    +0.119 C 
ATOM     15  C   UNL     1       5.899   7.531 -21.649  0.00  0.00    +0.033 C 
ATOM     16  C   UNL     1       6.224   6.338 -22.055  0.00  0.00    +0.025 C 
ATOM     17  C   UNL     1       5.311   5.542 -22.528  0.00  0.00    +0.084 C 
ATOM     18  N   UNL     1       5.635   4.351 -22.934  0.00  0.00    -0.290 N 
ENDROOT
BRANCH  14  19
ATOM     19  O   UNL     1       4.338   9.117 -21.310  0.00  0.00    -0.372 OA
BRANCH  19  20
ATOM     20  C   UNL     1       4.254  10.094 -22.163  0.00  0.00    +0.195 C 
BRANCH  20  21
ATOM     21  C   UNL     1       3.680  11.209 -21.820  0.00  0.00    -0.022 A 
ATOM     22  C   UNL     1       3.696  11.593 -20.578  0.00  0.00    +0.006 A 
ATOM     23  C   UNL     1       3.122  12.709 -20.236  0.00  0.00    +0.000 A 
ATOM     24  C   UNL     1       2.532  13.439 -21.136  0.00  0.00    +0.000 A 
ATOM     25  C   UNL     1       2.517  13.055 -22.378  0.00  0.00    +0.000 A 
ATOM     26  C   UNL     1       3.091  11.939 -22.720  0.00  0.00    +0.006 A 
ENDBRANCH  20  21
ENDBRANCH  19  20
ENDBRANCH  14  19
BRANCH  18  27
ATOM     27  C   UNL     1       6.872   3.955 -22.868  0.00  0.00    +0.143 C 
BRANCH  27  28
ATOM     28  C   UNL     1       7.602   3.920 -23.942  0.00  0.00    -0.030 A 
ATOM     29  C   UNL     1       7.633   4.946 -24.740  0.00  0.00    +0.005 A 
ATOM     30  C   UNL     1       8.364   4.910 -25.815  0.00  0.00    +0.000 A 
ATOM     31  C   UNL     1       9.062   3.850 -26.092  0.00  0.00    +0.000 A 
ATOM     32  C   UNL     1       9.031   2.824 -25.294  0.00  0.00    +0.000 A 
ATOM     33  C   UNL     1       8.300   2.859 -24.219  0.00  0.00    +0.005 A 
ENDBRANCH  27  28
ENDBRANCH  18  27
TORSDOF 5
ENDMDL
MODEL 2
REMARK VINA RESULT:    -7.547      2.438      3.568
REMARK INTER + INTRA:         -10.468
REMARK INTER:                 -10.149
REMARK INTRA:                  -0.319
REMARK UNBOUND:                -0.715
REMARK  Name = O=C1c2cc3c(cc2[C@@H]2C[C@H](OCc4ccccc4)CC[C@@H]2N1Cc1ccccc1)OCO3     ZINC000247798830
REMARK  5 active torsions:
REMARK  status: ('A' for Active; 'I' for Inactive)
REMARK    1  A    between atoms: C_11  and  O_12
REMARK    2  A    between atoms: O_12  and  C_13
REMARK    3  A    between atoms: C_13  and  C_14
REMARK    4  A    between atoms: N_23  and  C_24
REMARK    5  A    between atoms: C_24  and  C_25
REMARK                            x       y       z     vdW  Elec       q    Type
REMARK                         _______ _______ _______ _____ _____    ______ ____
ROOT
ATOM      1  O   UNL     1       1.940   1.037 -24.395  0.00  0.00    -0.270 OA
ATOM      2  C   UNL     1       2.072   2.278 -24.033  0.00  0.00    +0.248 C 
ATOM      3  C   UNL     1       1.039   3.068 -24.029  0.00  0.00    +0.044 A 
ATOM      4  C   UNL     1      -0.126   2.615 -24.388  0.00  0.00    +0.063 A 
ATOM      5  C   UNL     1      -1.159   3.404 -24.385  0.00  0.00    +0.167 A 
ATOM      6  C   UNL     1      -1.027   4.646 -24.022  0.00  0.00    +0.167 A 
ATOM      7  O   UNL     1      -2.194   5.214 -24.105  0.00  0.00    -0.453 OA
ATOM      8  C   UNL     1      -3.046   4.324 -24.519  0.00  0.00    +0.466 C 
ATOM      9  C   UNL     1       0.137   5.098 -23.663  0.00  0.00    +0.054 A 
ATOM     10  O   UNL     1      -2.407   3.205 -24.692  0.00  0.00    -0.453 OA
ATOM     11  C   UNL     1       1.170   4.309 -23.666  0.00  0.00    -0.027 A 
ATOM     12  C   UNL     1       2.335   4.761 -23.307  0.00  0.00    +0.043 C 
ATOM     13  C   UNL     1       2.466   6.003 -22.945  0.00  0.00    +0.041 C 
ATOM     14  C   UNL     1       3.630   6.455 -22.586  0.00  0.00    +0.119 C 
ATOM     15  C   UNL     1       4.664   5.667 -22.589  0.00  0.00    +0.033 C 
ATOM     16  C   UNL     1       4.533   4.424 -22.952  0.00  0.00    +0.025 C 
ATOM     17  C   UNL     1       3.368   3.973 -23.311  0.00  0.00    +0.084 C 
ATOM     18  N   UNL     1       3.236   2.731 -23.674  0.00  0.00    -0.290 N 
ENDROOT
BRANCH  14  19
ATOM     19  O   UNL     1       3.762   7.697 -22.223  0.00  0.00    -0.372 OA
BRANCH  19  20
ATOM     20  C   UNL     1       4.880   8.106 -21.700  0.00  0.00    +0.195 C 
BRANCH  20  21
ATOM     21  C   UNL     1       5.069   9.373 -21.481  0.00  0.00    -0.022 A 
ATOM     22  C   UNL     1       4.191  10.055 -20.807  0.00  0.00    +0.006 A 
ATOM     23  C   UNL     1       4.381  11.323 -20.588  0.00  0.00    +0.000 A 
ATOM     24  C   UNL     1       5.449  11.908 -21.044  0.00  0.00    +0.000 A 
ATOM     25  C   UNL     1       6.327  11.226 -21.718  0.00  0.00    +0.000 A 
ATOM     26  C   UNL     1       6.137   9.958 -21.937  0.00  0.00    +0.006 A 
ENDBRANCH  20  21
ENDBRANCH  19  20
ENDBRANCH  14  19
BRANCH  18  27
ATOM     27  C   UNL     1       4.269   1.942 -23.677  0.00  0.00    +0.143 C 
BRANCH  27  28
ATOM     28  C   UNL     1       4.572   1.262 -22.612  0.00  0.00    -0.030 A 
ATOM     29  C   UNL     1       3.644   0.940 -21.761  0.00  0.00    +0.005 A 
ATOM     30  C   UNL     1       3.947   0.259 -20.695  0.00  0.00    +0.000 A 
ATOM     31  C   UNL     1       5.177  -0.099 -20.480  0.00  0.00    +0.000 A 
ATOM     32  C   UNL     1       6.106   0.223 -21.331  0.00  0.00    +0.000 A 
ATOM     33  C   UNL     1       5.803   0.903 -22.398  0.00  0.00    +0.005 A 
ENDBRANCH  27  28
ENDBRANCH  18  27
TORSDOF 5
ENDMDL
MODEL 3
REMARK VINA RESULT:    -7.404      3.225      6.699
REMARK INTER + INTRA:         -10.283
REMARK INTER:                  -9.810
REMARK INTRA:                  -0.473
REMARK UNBOUND:                -0.715
REMARK  Name = O=C1c2cc3c(cc2[C@@H]2C[C@H](OCc4ccccc4)CC[C@@H]2N1Cc1ccccc1)OCO3     ZINC000247798830
REMARK  5 active torsions:
REMARK  status: ('A' for Active; 'I' for Inactive)
REMARK    1  A    between atoms: C_11  and  O_12
REMARK    2  A    between atoms: O_12  and  C_13
REMARK    3  A    between atoms: C_13  and  C_14
REMARK    4  A    between atoms: N_23  and  C_24
REMARK    5  A    between atoms: C_24  and  C_25
REMARK                            x       y       z     vdW  Elec       q    Type
REMARK                         _______ _______ _______ _____ _____    ______ ____
ROOT
ATOM      1  O   UNL     1       0.075   0.360 -22.488  0.00  0.00    -0.270 OA
ATOM      2  C   UNL     1       0.766   1.459 -22.550  0.00  0.00    +0.248 C 
ATOM      3  C   UNL     1       1.991   1.481 -22.115  0.00  0.00    +0.044 A 
ATOM      4  C   UNL     1       2.524   0.405 -21.618  0.00  0.00    +0.063 A 
ATOM      5  C   UNL     1       3.748   0.427 -21.183  0.00  0.00    +0.167 A 
ATOM      6  C   UNL     1       4.441   1.527 -21.245  0.00  0.00    +0.167 A 
ATOM      7  O   UNL     1       5.620   1.287 -20.752  0.00  0.00    -0.453 OA
ATOM      8  C   UNL     1       5.657   0.040 -20.386  0.00  0.00    +0.466 C 
ATOM      9  C   UNL     1       3.908   2.602 -21.741  0.00  0.00    +0.054 A 
ATOM     10  O   UNL     1       4.500  -0.492 -20.652  0.00  0.00    -0.453 OA
ATOM     11  C   UNL     1       2.683   2.580 -22.177  0.00  0.00    -0.027 A 
ATOM     12  C   UNL     1       2.149   3.657 -22.674  0.00  0.00    +0.043 C 
ATOM     13  C   UNL     1       2.842   4.755 -22.735  0.00  0.00    +0.041 C 
ATOM     14  C   UNL     1       2.309   5.832 -23.232  0.00  0.00    +0.119 C 
ATOM     15  C   UNL     1       1.084   5.810 -23.667  0.00  0.00    +0.033 C 
ATOM     16  C   UNL     1       0.391   4.711 -23.605  0.00  0.00    +0.025 C 
ATOM     17  C   UNL     1       0.925   3.634 -23.108  0.00  0.00    +0.084 C 
ATOM     18  N   UNL     1       0.233   2.535 -23.046  0.00  0.00    -0.290 N 
ENDROOT
BRANCH  14  19
ATOM     19  O   UNL     1       3.000   6.931 -23.294  0.00  0.00    -0.372 OA
BRANCH  19  20
ATOM     20  C   UNL     1       3.934   7.162 -22.419  0.00  0.00    +0.195 C 
BRANCH  20  21
ATOM     21  C   UNL     1       4.004   8.321 -21.834  0.00  0.00    -0.022 A 
ATOM     22  C   UNL     1       4.024   9.408 -22.547  0.00  0.00    +0.006 A 
ATOM     23  C   UNL     1       4.094  10.568 -21.961  0.00  0.00    +0.000 A 
ATOM     24  C   UNL     1       4.144  10.638 -20.664  0.00  0.00    +0.000 A 
ATOM     25  C   UNL     1       4.124   9.551 -19.951  0.00  0.00    +0.000 A 
ATOM     26  C   UNL     1       4.054   8.392 -20.537  0.00  0.00    +0.006 A 
ENDBRANCH  20  21
ENDBRANCH  19  20
ENDBRANCH  14  19
BRANCH  18  27
ATOM     27  C   UNL     1      -0.992   2.513 -23.481  0.00  0.00    +0.143 C 
BRANCH  27  28
ATOM     28  C   UNL     1      -1.969   2.846 -22.692  0.00  0.00    -0.030 A 
ATOM     29  C   UNL     1      -3.164   3.014 -23.174  0.00  0.00    +0.005 A 
ATOM     30  C   UNL     1      -4.142   3.348 -22.384  0.00  0.00    +0.000 A 
ATOM     31  C   UNL     1      -3.925   3.512 -21.114  0.00  0.00    +0.000 A 
ATOM     32  C   UNL     1      -2.729   3.343 -20.631  0.00  0.00    +0.000 A 
ATOM     33  C   UNL     1      -1.751   3.010 -21.421  0.00  0.00    +0.005 A 
ENDBRANCH  27  28
ENDBRANCH  18  27
TORSDOF 5
ENDMDL
MODEL 4
REMARK VINA RESULT:    -5.928      2.995      7.022
REMARK INTER + INTRA:          -8.376
REMARK INTER:                  -7.957
REMARK INTRA:                  -0.419
REMARK UNBOUND:                -0.715
REMARK  Name = O=C1c2cc3c(cc2[C@@H]2C[C@H](OCc4ccccc4)CC[C@@H]2N1Cc1ccccc1)OCO3     ZINC000247798830
REMARK  5 active torsions:
REMARK  status: ('A' for Active; 'I' for Inactive)
REMARK    1  A    between atoms: C_11  and  O_12
REMARK    2  A    between atoms: O_12  and  C_13
REMARK    3  A    between atoms: C_13  and  C_14
REMARK    4  A    between atoms: N_23  and  C_24
REMARK    5  A    between atoms: C_24  and  C_25
REMARK                            x       y       z     vdW  Elec       q    Type
REMARK                         _______ _______ _______ _____ _____    ______ ____
ROOT
ATOM      1  O   UNL     1       6.324   4.867 -21.851  0.00  0.00    -0.270 OA
ATOM      2  C   UNL     1       5.130   4.429 -22.119  0.00  0.00    +0.248 C 
ATOM      3  C   UNL     1       4.788   3.222 -21.776  0.00  0.00    +0.044 A 
ATOM      4  C   UNL     1       5.641   2.454 -21.166  0.00  0.00    +0.063 A 
ATOM      5  C   UNL     1       5.299   1.248 -20.824  0.00  0.00    +0.167 A 
ATOM      6  C   UNL     1       4.104   0.810 -21.091  0.00  0.00    +0.167 A 
ATOM      7  O   UNL     1       4.016  -0.410 -20.651  0.00  0.00    -0.453 OA
ATOM      8  C   UNL     1       5.156  -0.726 -20.111  0.00  0.00    +0.466 C 
ATOM      9  C   UNL     1       3.253   1.578 -21.701  0.00  0.00    +0.054 A 
ATOM     10  O   UNL     1       5.949   0.298 -20.218  0.00  0.00    -0.453 OA
ATOM     11  C   UNL     1       3.593   2.785 -22.044  0.00  0.00    -0.027 A 
ATOM     12  C   UNL     1       2.741   3.553 -22.654  0.00  0.00    +0.043 C 
ATOM     13  C   UNL     1       1.546   3.114 -22.921  0.00  0.00    +0.041 C 
ATOM     14  C   UNL     1       0.694   3.883 -23.531  0.00  0.00    +0.119 C 
ATOM     15  C   UNL     1       1.035   5.090 -23.874  0.00  0.00    +0.033 C 
ATOM     16  C   UNL     1       2.230   5.528 -23.607  0.00  0.00    +0.025 C 
ATOM     17  C   UNL     1       3.082   4.760 -22.997  0.00  0.00    +0.084 C 
ATOM     18  N   UNL     1       4.277   5.197 -22.729  0.00  0.00    -0.290 N 
ENDROOT
BRANCH  14  19
ATOM     19  O   UNL     1      -0.500   3.445 -23.799  0.00  0.00    -0.372 OA
BRANCH  19  20
ATOM     20  C   UNL     1      -1.066   2.578 -23.013  0.00  0.00    +0.195 C 
BRANCH  20  21
ATOM     21  C   UNL     1      -2.162   2.886 -22.385  0.00  0.00    -0.022 A 
ATOM     22  C   UNL     1      -2.146   3.059 -21.097  0.00  0.00    +0.006 A 
ATOM     23  C   UNL     1      -3.242   3.368 -20.469  0.00  0.00    +0.000 A 
ATOM     24  C   UNL     1      -4.353   3.504 -21.131  0.00  0.00    +0.000 A 
ATOM     25  C   UNL     1      -4.369   3.331 -22.419  0.00  0.00    +0.000 A 
ATOM     26  C   UNL     1      -3.272   3.022 -23.047  0.00  0.00    +0.006 A 
ENDBRANCH  20  21
ENDBRANCH  19  20
ENDBRANCH  14  19
BRANCH  18  27
ATOM     27  C   UNL     1       4.619   6.404 -23.072  0.00  0.00    +0.143 C 
BRANCH  27  28
ATOM     28  C   UNL     1       4.880   7.291 -22.158  0.00  0.00    -0.030 A 
ATOM     29  C   UNL     1       6.080   7.779 -22.052  0.00  0.00    +0.005 A 
ATOM     30  C   UNL     1       6.341   8.667 -21.137  0.00  0.00    +0.000 A 
ATOM     31  C   UNL     1       5.404   9.064 -20.330  0.00  0.00    +0.000 A 
ATOM     32  C   UNL     1       4.204   8.576 -20.436  0.00  0.00    +0.000 A 
ATOM     33  C   UNL     1       3.942   7.688 -21.351  0.00  0.00    +0.005 A 
ENDBRANCH  27  28
ENDBRANCH  18  27
TORSDOF 5
ENDMDL
MODEL 5
REMARK VINA RESULT:    -5.749      1.997      2.726
REMARK INTER + INTRA:          -8.145
REMARK INTER:                  -7.932
REMARK INTRA:                  -0.213
REMARK UNBOUND:                -0.715
REMARK  Name = O=C1c2cc3c(cc2[C@@H]2C[C@H](OCc4ccccc4)CC[C@@H]2N1Cc1ccccc1)OCO3     ZINC000247798830
REMARK  5 active torsions:
REMARK  status: ('A' for Active; 'I' for Inactive)
REMARK    1  A    between atoms: C_11  and  O_12
REMARK    2  A    between atoms: O_12  and  C_13
REMARK    3  A    between atoms: C_13  and  C_14
REMARK    4  A    between atoms: N_23  and  C_24
REMARK    5  A    between atoms: C_24  and  C_25
REMARK                            x       y       z     vdW  Elec       q    Type
REMARK                         _______ _______ _______ _____ _____    ______ ____
ROOT
ATOM      1  O   UNL     1       7.695   3.092 -25.131  0.00  0.00    -0.270 OA
ATOM      2  C   UNL     1       7.191   3.939 -24.284  0.00  0.00    +0.248 C 
ATOM      3  C   UNL     1       6.062   3.675 -23.694  0.00  0.00    +0.044 A 
ATOM      4  C   UNL     1       5.439   2.564 -23.953  0.00  0.00    +0.063 A 
ATOM      5  C   UNL     1       4.311   2.300 -23.364  0.00  0.00    +0.167 A 
ATOM      6  C   UNL     1       3.806   3.147 -22.516  0.00  0.00    +0.167 A 
ATOM      7  O   UNL     1       2.688   2.653 -22.072  0.00  0.00    -0.453 OA
ATOM      8  C   UNL     1       2.502   1.501 -22.645  0.00  0.00    +0.466 C 
ATOM      9  C   UNL     1       4.429   4.257 -22.258  0.00  0.00    +0.054 A 
ATOM     10  O   UNL     1       3.505   1.282 -23.443  0.00  0.00    -0.453 OA
ATOM     11  C   UNL     1       5.558   4.522 -22.847  0.00  0.00    -0.027 A 
ATOM     12  C   UNL     1       6.181   5.634 -22.590  0.00  0.00    +0.043 C 
ATOM     13  C   UNL     1       5.676   6.480 -21.742  0.00  0.00    +0.041 C 
ATOM     14  C   UNL     1       6.299   7.591 -21.484  0.00  0.00    +0.119 C 
ATOM     15  C   UNL     1       7.428   7.856 -22.073  0.00  0.00    +0.033 C 
ATOM     16  C   UNL     1       7.933   7.009 -22.921  0.00  0.00    +0.025 C 
ATOM     17  C   UNL     1       7.309   5.898 -23.179  0.00  0.00    +0.084 C 
ATOM     18  N   UNL     1       7.814   5.051 -24.026  0.00  0.00    -0.290 N 
ENDROOT
BRANCH  14  19
ATOM     19  O   UNL     1       5.795   8.438 -20.637  0.00  0.00    -0.372 OA
BRANCH  19  20
ATOM     20  C   UNL     1       4.540   8.771 -20.719  0.00  0.00    +0.195 C 
BRANCH  20  21
ATOM     21  C   UNL     1       4.203   9.909 -21.249  0.00  0.00    -0.022 A 
ATOM     22  C   UNL     1       4.296  11.003 -20.554  0.00  0.00    +0.006 A 
ATOM     23  C   UNL     1       3.959  12.142 -21.084  0.00  0.00    +0.000 A 
ATOM     24  C   UNL     1       3.528  12.184 -22.310  0.00  0.00    +0.000 A 
ATOM     25  C   UNL     1       3.435  11.090 -23.006  0.00  0.00    +0.000 A 
ATOM     26  C   UNL     1       3.772   9.952 -22.475  0.00  0.00    +0.006 A 
ENDBRANCH  20  21
ENDBRANCH  19  20
ENDBRANCH  14  19
BRANCH  18  27
ATOM     27  C   UNL     1       8.942   5.314 -24.615  0.00  0.00    +0.143 C 
BRANCH  27  28
ATOM     28  C   UNL     1       8.951   5.747 -25.841  0.00  0.00    -0.030 A 
ATOM     29  C   UNL     1       8.856   7.021 -26.080  0.00  0.00    +0.005 A 
ATOM     30  C   UNL     1       8.864   7.454 -27.307  0.00  0.00    +0.000 A 
ATOM     31  C   UNL     1       8.967   6.613 -28.292  0.00  0.00    +0.000 A 
ATOM     32  C   UNL     1       9.062   5.339 -28.053  0.00  0.00    +0.000 A 
ATOM     33  C   UNL     1       9.054   4.906 -26.826  0.00  0.00    +0.005 A 
ENDBRANCH  27  28
ENDBRANCH  18  27
TORSDOF 5
ENDMDL
MODEL 6
REMARK VINA RESULT:    -5.549      3.232      6.602
REMARK INTER + INTRA:          -7.886
REMARK INTER:                  -7.134
REMARK INTRA:                  -0.752
REMARK UNBOUND:                -0.715
REMARK  Name = O=C1c2cc3c(cc2[C@@H]2C[C@H](OCc4ccccc4)CC[C@@H]2N1Cc1ccccc1)OCO3     ZINC000247798830
REMARK  5 active torsions:
REMARK  status: ('A' for Active; 'I' for Inactive)
REMARK    1  A    between atoms: C_11  and  O_12
REMARK    2  A    between atoms: O_12  and  C_13
REMARK    3  A    between atoms: C_13  and  C_14
REMARK    4  A    between atoms: N_23  and  C_24
REMARK    5  A    between atoms: C_24  and  C_25
REMARK                            x       y       z     vdW  Elec       q    Type
REMARK                         _______ _______ _______ _____ _____    ______ ____
ROOT
ATOM      1  O   UNL     1       5.036   7.573 -19.898  0.00  0.00    -0.270 OA
ATOM      2  C   UNL     1       5.624   8.171 -20.891  0.00  0.00    +0.248 C 
ATOM      3  C   UNL     1       5.273   9.377 -21.224  0.00  0.00    +0.044 A 
ATOM      4  C   UNL     1       4.333   9.986 -20.564  0.00  0.00    +0.063 A 
ATOM      5  C   UNL     1       3.982  11.192 -20.897  0.00  0.00    +0.167 A 
ATOM      6  C   UNL     1       4.571  11.790 -21.890  0.00  0.00    +0.167 A 
ATOM      7  O   UNL     1       4.043  12.972 -22.017  0.00  0.00    -0.453 OA
ATOM      8  C   UNL     1       3.128  13.104 -21.102  0.00  0.00    +0.466 C 
ATOM      9  C   UNL     1       5.510  11.182 -22.549  0.00  0.00    +0.054 A 
ATOM     10  O   UNL     1       3.090  12.004 -20.410  0.00  0.00    -0.453 OA
ATOM     11  C   UNL     1       5.862   9.975 -22.217  0.00  0.00    -0.027 A 
ATOM     12  C   UNL     1       6.802   9.366 -22.877  0.00  0.00    +0.043 C 
ATOM     13  C   UNL     1       7.391   9.966 -23.870  0.00  0.00    +0.041 C 
ATOM     14  C   UNL     1       8.331   9.357 -24.530  0.00  0.00    +0.119 C 
ATOM     15  C   UNL     1       8.683   8.150 -24.198  0.00  0.00    +0.033 C 
ATOM     16  C   UNL     1       8.094   7.552 -23.204  0.00  0.00    +0.025 C 
ATOM     17  C   UNL     1       7.154   8.160 -22.544  0.00  0.00    +0.084 C 
ATOM     18  N   UNL     1       6.565   7.563 -21.552  0.00  0.00    -0.290 N 
ENDROOT
BRANCH  14  19
ATOM     19  O   UNL     1       8.920   9.955 -25.522  0.00  0.00    -0.372 OA
BRANCH  19  20
ATOM     20  C   UNL     1       9.062   9.340 -26.659  0.00  0.00    +0.195 C 
BRANCH  20  21
ATOM     21  C   UNL     1       8.021   9.073 -27.390  0.00  0.00    -0.022 A 
ATOM     22  C   UNL     1       7.864   7.883 -27.888  0.00  0.00    +0.006 A 
ATOM     23  C   UNL     1       6.821   7.617 -28.618  0.00  0.00    +0.000 A 
ATOM     24  C   UNL     1       5.937   8.541 -28.850  0.00  0.00    +0.000 A 
ATOM     25  C   UNL     1       6.094   9.732 -28.352  0.00  0.00    +0.000 A 
ATOM     26  C   UNL     1       7.137   9.998 -27.621  0.00  0.00    +0.006 A 
ENDBRANCH  20  21
ENDBRANCH  19  20
ENDBRANCH  14  19
BRANCH  18  27
ATOM     27  C   UNL     1       6.916   6.356 -21.219  0.00  0.00    +0.143 C 
BRANCH  27  28
ATOM     28  C   UNL     1       6.459   5.338 -21.885  0.00  0.00    -0.030 A 
ATOM     29  C   UNL     1       7.139   4.230 -21.924  0.00  0.00    +0.005 A 
ATOM     30  C   UNL     1       6.682   3.211 -22.591  0.00  0.00    +0.000 A 
ATOM     31  C   UNL     1       5.547   3.300 -23.218  0.00  0.00    +0.000 A 
ATOM     32  C   UNL     1       4.868   4.408 -23.178  0.00  0.00    +0.000 A 
ATOM     33  C   UNL     1       5.324   5.427 -22.511  0.00  0.00    +0.005 A 
ENDBRANCH  27  28
ENDBRANCH  18  27
TORSDOF 5
ENDMDL
MODEL 7
REMARK VINA RESULT:    -5.498      1.815      7.238
REMARK INTER + INTRA:          -7.820
REMARK INTER:                  -7.746
REMARK INTRA:                  -0.073
REMARK UNBOUND:                -0.715
REMARK  Name = O=C1c2cc3c(cc2[C@@H]2C[C@H](OCc4ccccc4)CC[C@@H]2N1Cc1ccccc1)OCO3     ZINC000247798830
REMARK  5 active torsions:
REMARK  status: ('A' for Active; 'I' for Inactive)
REMARK    1  A    between atoms: C_11  and  O_12
REMARK    2  A    between atoms: O_12  and  C_13
REMARK    3  A    between atoms: C_13  and  C_14
REMARK    4  A    between atoms: N_23  and  C_24
REMARK    5  A    between atoms: C_24  and  C_25
REMARK                            x       y       z     vdW  Elec       q    Type
REMARK                         _______ _______ _______ _____ _____    ______ ____
ROOT
ATOM      1  O   UNL     1       6.535   7.379 -21.253  0.00  0.00    -0.270 OA
ATOM      2  C   UNL     1       5.703   6.611 -21.893  0.00  0.00    +0.248 C 
ATOM      3  C   UNL     1       6.146   5.583 -22.556  0.00  0.00    +0.044 A 
ATOM      4  C   UNL     1       7.420   5.325 -22.578  0.00  0.00    +0.063 A 
ATOM      5  C   UNL     1       7.862   4.298 -23.240  0.00  0.00    +0.167 A 
ATOM      6  C   UNL     1       7.031   3.529 -23.881  0.00  0.00    +0.167 A 
ATOM      7  O   UNL     1       7.717   2.586 -24.455  0.00  0.00    -0.453 OA
ATOM      8  C   UNL     1       8.972   2.771 -24.170  0.00  0.00    +0.466 C 
ATOM      9  C   UNL     1       5.758   3.789 -23.858  0.00  0.00    +0.054 A 
ATOM     10  O   UNL     1       9.062   3.829 -23.419  0.00  0.00    -0.453 OA
ATOM     11  C   UNL     1       5.315   4.816 -23.196  0.00  0.00    -0.027 A 
ATOM     12  C   UNL     1       4.041   5.075 -23.173  0.00  0.00    +0.043 C 
ATOM     13  C   UNL     1       3.211   4.306 -23.813  0.00  0.00    +0.041 C 
ATOM     14  C   UNL     1       1.937   4.566 -23.790  0.00  0.00    +0.119 C 
ATOM     15  C   UNL     1       1.494   5.592 -23.128  0.00  0.00    +0.033 C 
ATOM     16  C   UNL     1       2.325   6.361 -22.488  0.00  0.00    +0.025 C 
ATOM     17  C   UNL     1       3.598   6.102 -22.511  0.00  0.00    +0.084 C 
ATOM     18  N   UNL     1       4.430   6.870 -21.871  0.00  0.00    -0.290 N 
ENDROOT
BRANCH  14  19
ATOM     19  O   UNL     1       1.106   3.798 -24.430  0.00  0.00    -0.372 OA
BRANCH  19  20
ATOM     20  C   UNL     1      -0.175   3.990 -24.318  0.00  0.00    +0.195 C 
BRANCH  20  21
ATOM     21  C   UNL     1      -0.814   3.524 -23.286  0.00  0.00    -0.022 A 
ATOM     22  C   UNL     1      -1.801   4.198 -22.774  0.00  0.00    +0.006 A 
ATOM     23  C   UNL     1      -2.440   3.732 -21.741  0.00  0.00    +0.000 A 
ATOM     24  C   UNL     1      -2.091   2.592 -21.223  0.00  0.00    +0.000 A 
ATOM     25  C   UNL     1      -1.105   1.917 -21.735  0.00  0.00    +0.000 A 
ATOM     26  C   UNL     1      -0.466   2.384 -22.767  0.00  0.00    +0.006 A 
ENDBRANCH  20  21
ENDBRANCH  19  20
ENDBRANCH  14  19
BRANCH  18  27
ATOM     27  C   UNL     1       3.987   7.897 -21.208  0.00  0.00    +0.143 C 
BRANCH  27  28
ATOM     28  C   UNL     1       4.339   9.098 -21.558  0.00  0.00    -0.030 A 
ATOM     29  C   UNL     1       4.924   9.879 -20.699  0.00  0.00    +0.005 A 
ATOM     30  C   UNL     1       5.276  11.082 -21.050  0.00  0.00    +0.000 A 
ATOM     31  C   UNL     1       5.043  11.501 -22.257  0.00  0.00    +0.000 A 
ATOM     32  C   UNL     1       4.458  10.720 -23.116  0.00  0.00    +0.000 A 
ATOM     33  C   UNL     1       4.106   9.517 -22.766  0.00  0.00    +0.005 A 
ENDBRANCH  27  28
ENDBRANCH  18  27
TORSDOF 5
ENDMDL
MODEL 8
REMARK VINA RESULT:    -4.661      2.828      5.669
REMARK INTER + INTRA:          -6.738
REMARK INTER:                  -6.399
REMARK INTRA:                  -0.339
REMARK UNBOUND:                -0.715
REMARK  Name = O=C1c2cc3c(cc2[C@@H]2C[C@H](OCc4ccccc4)CC[C@@H]2N1Cc1ccccc1)OCO3     ZINC000247798830
REMARK  5 active torsions:
REMARK  status: ('A' for Active; 'I' for Inactive)
REMARK    1  A    between atoms: C_11  and  O_12
REMARK    2  A    between atoms: O_12  and  C_13
REMARK    3  A    between atoms: C_13  and  C_14
REMARK    4  A    between atoms: N_23  and  C_24
REMARK    5  A    between atoms: C_24  and  C_25
REMARK                            x       y       z     vdW  Elec       q    Type
REMARK                         _______ _______ _______ _____ _____    ______ ____
ROOT
ATOM      1  O   UNL     1       1.151   1.832 -24.017  0.00  0.00    -0.270 OA
ATOM      2  C   UNL     1       1.964   2.702 -23.493  0.00  0.00    +0.248 C 
ATOM      3  C   UNL     1       2.938   2.304 -22.730  0.00  0.00    +0.044 A 
ATOM      4  C   UNL     1       3.100   1.036 -22.491  0.00  0.00    +0.063 A 
ATOM      5  C   UNL     1       4.073   0.638 -21.729  0.00  0.00    +0.167 A 
ATOM      6  C   UNL     1       4.886   1.508 -21.204  0.00  0.00    +0.167 A 
ATOM      7  O   UNL     1       5.761   0.861 -20.492  0.00  0.00    -0.453 OA
ATOM      8  C   UNL     1       5.490  -0.408 -20.576  0.00  0.00    +0.466 C 
ATOM      9  C   UNL     1       4.724   2.774 -21.443  0.00  0.00    +0.054 A 
ATOM     10  O   UNL     1       4.447  -0.546 -21.340  0.00  0.00    -0.453 OA
ATOM     11  C   UNL     1       3.750   3.173 -22.206  0.00  0.00    -0.027 A 
ATOM     12  C   UNL     1       3.588   4.441 -22.446  0.00  0.00    +0.043 C 
ATOM     13  C   UNL     1       4.401   5.309 -21.921  0.00  0.00    +0.041 C 
ATOM     14  C   UNL     1       4.238   6.577 -22.160  0.00  0.00    +0.119 C 
ATOM     15  C   UNL     1       3.265   6.976 -22.923  0.00  0.00    +0.033 C 
ATOM     16  C   UNL     1       2.452   6.106 -23.448  0.00  0.00    +0.025 C 
ATOM     17  C   UNL     1       2.614   4.839 -23.208  0.00  0.00    +0.084 C 
ATOM     18  N   UNL     1       1.802   3.969 -23.732  0.00  0.00    -0.290 N 
ENDROOT
BRANCH  14  19
ATOM     19  O   UNL     1       5.051   7.446 -21.636  0.00  0.00    -0.372 OA
BRANCH  19  20
ATOM     20  C   UNL     1       5.324   8.547 -22.272  0.00  0.00    +0.195 C 
BRANCH  20  21
ATOM     21  C   UNL     1       5.123   9.696 -21.699  0.00  0.00    -0.022 A 
ATOM     22  C   UNL     1       4.187   9.822 -20.806  0.00  0.00    +0.006 A 
ATOM     23  C   UNL     1       3.987  10.972 -20.232  0.00  0.00    +0.000 A 
ATOM     24  C   UNL     1       4.723  11.995 -20.552  0.00  0.00    +0.000 A 
ATOM     25  C   UNL     1       5.659  11.869 -21.446  0.00  0.00    +0.000 A 
ATOM     26  C   UNL     1       5.859  10.718 -22.019  0.00  0.00    +0.006 A 
ENDBRANCH  20  21
ENDBRANCH  19  20
ENDBRANCH  14  19
BRANCH  18  27
ATOM     27  C   UNL     1       0.827   4.367 -24.496  0.00  0.00    +0.143 C 
BRANCH  27  28
ATOM     28  C   UNL     1      -0.405   4.187 -24.125  0.00  0.00    -0.030 A 
ATOM     29  C   UNL     1      -0.773   4.506 -22.919  0.00  0.00    +0.005 A 
ATOM     30  C   UNL     1      -2.007   4.325 -22.548  0.00  0.00    +0.000 A 
ATOM     31  C   UNL     1      -2.870   3.827 -23.381  0.00  0.00    +0.000 A 
ATOM     32  C   UNL     1      -2.502   3.508 -24.586  0.00  0.00    +0.000 A 
ATOM     33  C   UNL     1      -1.268   3.688 -24.958  0.00  0.00    +0.005 A 
ENDBRANCH  27  28
ENDBRANCH  18  27
TORSDOF 5
ENDMDL
