MODEL 1
REMARK VINA RESULT:   -11.177      0.000      0.000
REMARK INTER + INTRA:         -12.421
REMARK INTER:                 -12.312
REMARK INTRA:                  -0.110
REMARK UNBOUND:                 0.063
REMARK  Name = ZINC000032275646
REMARK  4 active torsions:
REMARK  status: ('A' for Active; 'I' for Inactive)
REMARK    1  A    between atoms: C_1  and  C_2
REMARK    2  A    between atoms: C_2  and  C_3
REMARK    3  A    between atoms: C_14  and  O_15
REMARK    4  A    between atoms: O_15  and  C_16
REMARK                            x       y       z     vdW  Elec       q    Type
REMARK                         _______ _______ _______ _____ _____    ______ ____
ROOT
ATOM      1  C   UNL     1      -3.569   3.666 -24.230  0.00  0.00    +0.011 C 
ATOM      2  C   UNL     1      -4.832   3.921 -24.258  0.00  0.00    +0.017 C 
ATOM      3  C   UNL     1      -5.560   3.690 -23.201  0.00  0.00    +0.052 C 
ATOM      4  C   UNL     1      -5.022   3.210 -22.132  0.00  0.00    +0.131 C 
ATOM      5  N   UNL     1      -3.758   2.955 -22.104  0.00  0.00    +0.236 N 
ATOM      6  H   UNL     1      -4.554   2.886 -21.471  0.00  0.00    +0.203 HD
ATOM      7  C   UNL     1      -2.738   2.514 -21.412  0.00  0.00    +0.136 C 
ATOM      8  C   UNL     1      -1.474   2.322 -21.563  0.00  0.00    +0.088 C 
ATOM      9  C   UNL     1      -0.557   2.467 -22.481  0.00  0.00    -0.014 A 
ATOM     10  C   UNL     1      -0.449   2.875 -23.701  0.00  0.00    +0.020 A 
ATOM     11  C   UNL     1      -1.182   3.353 -24.655  0.00  0.00    +0.054 C 
ATOM     12  N   UNL     1       0.802   2.754 -24.046  0.00  0.00    -0.355 N 
ATOM     13  H   UNL     1       1.182   2.989 -24.923  0.00  0.00    +0.166 HD
ATOM     14  C   UNL     1       1.457   2.277 -23.051  0.00  0.00    +0.089 A 
ATOM     15  C   UNL     1       2.718   1.980 -22.902  0.00  0.00    +0.144 A 
ATOM     16  C   UNL     1       3.145   1.499 -21.769  0.00  0.00    +0.048 A 
ATOM     17  C   UNL     1       2.312   1.313 -20.784  0.00  0.00    +0.004 A 
ATOM     18  C   UNL     1       1.050   1.610 -20.933  0.00  0.00    +0.010 A 
ATOM     19  C   UNL     1       0.624   2.092 -22.066  0.00  0.00    +0.007 A 
ATOM     20  C   UNL     1      -3.016   3.178 -23.146  0.00  0.00    +0.138 C 
ATOM     21  C   UNL     1      -2.431   3.667 -24.861  0.00  0.00    +0.018 C 
ENDROOT
BRANCH   1  23
ATOM     22  C   UNL     1      -4.087   3.314 -26.396  0.00  0.00    +0.004 C 
ATOM     23  C   UNL     1      -3.816   4.132 -25.419  0.00  0.00    +0.009 C 
ENDBRANCH   1  23
BRANCH  15  24
ATOM     24  O   UNL     1       3.551   2.165 -23.888  0.00  0.00    -0.493 OA
ATOM     25  C   UNL     1       4.588   2.939 -23.728  0.00  0.00    +0.277 C 
ENDBRANCH  15  24
TORSDOF 2
ENDMDL
MODEL 2
REMARK VINA RESULT:   -11.132      1.367      2.816
REMARK INTER + INTRA:         -12.370
REMARK INTER:                 -12.592
REMARK INTRA:                   0.221
REMARK UNBOUND:                 0.063
REMARK  Name = ZINC000032275646
REMARK  4 active torsions:
REMARK  status: ('A' for Active; 'I' for Inactive)
REMARK    1  A    between atoms: C_1  and  C_2
REMARK    2  A    between atoms: C_2  and  C_3
REMARK    3  A    between atoms: C_14  and  O_15
REMARK    4  A    between atoms: O_15  and  C_16
REMARK                            x       y       z     vdW  Elec       q    Type
REMARK                         _______ _______ _______ _____ _____    ______ ____
ROOT
ATOM      1  C   UNL     1      -3.947   3.327 -22.690  0.00  0.00    +0.011 C 
ATOM      2  C   UNL     1      -5.110   3.758 -23.041  0.00  0.00    +0.017 C 
ATOM      3  C   UNL     1      -5.298   4.195 -24.255  0.00  0.00    +0.052 C 
ATOM      4  C   UNL     1      -4.326   4.196 -25.104  0.00  0.00    +0.131 C 
ATOM      5  N   UNL     1      -3.163   3.764 -24.753  0.00  0.00    +0.236 N 
ATOM      6  H   UNL     1      -3.603   4.150 -25.588  0.00  0.00    +0.203 HD
ATOM      7  C   UNL     1      -1.923   3.533 -25.102  0.00  0.00    +0.136 C 
ATOM      8  C   UNL     1      -0.839   3.069 -24.582  0.00  0.00    +0.088 C 
ATOM      9  C   UNL     1      -0.418   2.593 -23.443  0.00  0.00    -0.014 A 
ATOM     10  C   UNL     1      -0.868   2.342 -22.260  0.00  0.00    +0.020 A 
ATOM     11  C   UNL     1      -1.965   2.428 -21.578  0.00  0.00    +0.054 C 
ATOM     12  N   UNL     1       0.116   1.849 -21.561  0.00  0.00    -0.355 N 
ATOM     13  H   UNL     1       0.067   1.565 -20.620  0.00  0.00    +0.166 HD
ATOM     14  C   UNL     1       1.160   1.797 -22.305  0.00  0.00    +0.089 A 
ATOM     15  C   UNL     1       2.375   1.388 -22.069  0.00  0.00    +0.144 A 
ATOM     16  C   UNL     1       3.275   1.438 -23.011  0.00  0.00    +0.048 A 
ATOM     17  C   UNL     1       2.959   1.898 -24.190  0.00  0.00    +0.004 A 
ATOM     18  C   UNL     1       1.743   2.308 -24.425  0.00  0.00    +0.010 A 
ATOM     19  C   UNL     1       0.845   2.257 -23.483  0.00  0.00    +0.007 A 
ATOM     20  C   UNL     1      -2.956   3.326 -23.549  0.00  0.00    +0.138 C 
ATOM     21  C   UNL     1      -3.195   2.824 -21.756  0.00  0.00    +0.018 C 
ENDROOT
BRANCH   1  23
ATOM     22  C   UNL     1      -5.875   2.634 -21.747  0.00  0.00    +0.004 C 
ATOM     23  C   UNL     1      -4.708   3.205 -21.642  0.00  0.00    +0.009 C 
ENDBRANCH   1  23
BRANCH  15  24
ATOM     24  O   UNL     1       2.691   0.927 -20.891  0.00  0.00    -0.493 OA
ATOM     25  C   UNL     1       3.850   0.362 -20.701  0.00  0.00    +0.277 C 
ENDBRANCH  15  24
TORSDOF 2
ENDMDL
MODEL 3
REMARK VINA RESULT:   -10.261      2.155      6.771
REMARK INTER + INTRA:         -11.397
REMARK INTER:                 -11.292
REMARK INTRA:                  -0.106
REMARK UNBOUND:                 0.063
REMARK  Name = ZINC000032275646
REMARK  4 active torsions:
REMARK  status: ('A' for Active; 'I' for Inactive)
REMARK    1  A    between atoms: C_1  and  C_2
REMARK    2  A    between atoms: C_2  and  C_3
REMARK    3  A    between atoms: C_14  and  O_15
REMARK    4  A    between atoms: O_15  and  C_16
REMARK                            x       y       z     vdW  Elec       q    Type
REMARK                         _______ _______ _______ _____ _____    ______ ____
ROOT
ATOM      1  C   UNL     1       1.813   1.638 -22.595  0.00  0.00    +0.011 C 
ATOM      2  C   UNL     1       3.068   1.423 -22.794  0.00  0.00    +0.017 C 
ATOM      3  C   UNL     1       3.627   1.841 -23.895  0.00  0.00    +0.052 C 
ATOM      4  C   UNL     1       2.930   2.467 -24.782  0.00  0.00    +0.131 C 
ATOM      5  N   UNL     1       1.675   2.681 -24.583  0.00  0.00    +0.236 N 
ATOM      6  H   UNL     1       2.366   2.875 -25.307  0.00  0.00    +0.203 HD
ATOM      7  C   UNL     1       0.559   3.193 -25.038  0.00  0.00    +0.136 C 
ATOM      8  C   UNL     1      -0.670   3.317 -24.674  0.00  0.00    +0.088 C 
ATOM      9  C   UNL     1      -1.437   2.999 -23.667  0.00  0.00    -0.014 A 
ATOM     10  C   UNL     1      -1.358   2.400 -22.527  0.00  0.00    +0.020 A 
ATOM     11  C   UNL     1      -0.486   1.802 -21.780  0.00  0.00    +0.054 C 
ATOM     12  N   UNL     1      -2.544   2.425 -21.987  0.00  0.00    -0.355 N 
ATOM     13  H   UNL     1      -2.786   2.042 -21.113  0.00  0.00    +0.166 HD
ATOM     14  C   UNL     1      -3.345   3.031 -22.785  0.00  0.00    +0.089 A 
ATOM     15  C   UNL     1      -4.616   3.306 -22.698  0.00  0.00    +0.144 A 
ATOM     16  C   UNL     1      -5.213   3.947 -23.663  0.00  0.00    +0.048 A 
ATOM     17  C   UNL     1      -4.538   4.312 -24.718  0.00  0.00    +0.004 A 
ATOM     18  C   UNL     1      -3.266   4.036 -24.805  0.00  0.00    +0.010 A 
ATOM     19  C   UNL     1      -2.671   3.396 -23.839  0.00  0.00    +0.007 A 
ATOM     20  C   UNL     1       1.100   2.273 -23.494  0.00  0.00    +0.138 C 
ATOM     21  C   UNL     1       0.783   1.500 -21.813  0.00  0.00    +0.018 C 
ENDROOT
BRANCH   1  23
ATOM     22  C   UNL     1       2.923   1.628 -20.632  0.00  0.00    +0.004 C 
ATOM     23  C   UNL     1       2.239   0.998 -21.546  0.00  0.00    +0.009 C 
ENDBRANCH   1  23
BRANCH  15  24
ATOM     24  O   UNL     1      -5.291   2.941 -21.643  0.00  0.00    -0.493 OA
ATOM     25  C   UNL     1      -6.529   2.553 -21.764  0.00  0.00    +0.277 C 
ENDBRANCH  15  24
TORSDOF 2
ENDMDL
MODEL 4
REMARK VINA RESULT:   -10.103      2.113      6.203
REMARK INTER + INTRA:         -11.221
REMARK INTER:                 -11.167
REMARK INTRA:                  -0.054
REMARK UNBOUND:                 0.063
REMARK  Name = ZINC000032275646
REMARK  4 active torsions:
REMARK  status: ('A' for Active; 'I' for Inactive)
REMARK    1  A    between atoms: C_1  and  C_2
REMARK    2  A    between atoms: C_2  and  C_3
REMARK    3  A    between atoms: C_14  and  O_15
REMARK    4  A    between atoms: O_15  and  C_16
REMARK                            x       y       z     vdW  Elec       q    Type
REMARK                         _______ _______ _______ _____ _____    ______ ____
ROOT
ATOM      1  C   UNL     1       2.429   2.485 -22.872  0.00  0.00    +0.011 C 
ATOM      2  C   UNL     1       3.628   2.128 -22.559  0.00  0.00    +0.017 C 
ATOM      3  C   UNL     1       3.834   1.445 -21.468  0.00  0.00    +0.052 C 
ATOM      4  C   UNL     1       2.846   1.126 -20.703  0.00  0.00    +0.131 C 
ATOM      5  N   UNL     1       1.648   1.482 -21.016  0.00  0.00    +0.236 N 
ATOM      6  H   UNL     1       2.109   0.968 -20.266  0.00  0.00    +0.203 HD
ATOM      7  C   UNL     1       0.377   1.471 -20.699  0.00  0.00    +0.136 C 
ATOM      8  C   UNL     1      -0.742   1.907 -21.163  0.00  0.00    +0.088 C 
ATOM      9  C   UNL     1      -1.188   2.584 -22.187  0.00  0.00    -0.014 A 
ATOM     10  C   UNL     1      -0.739   3.158 -23.251  0.00  0.00    +0.020 A 
ATOM     11  C   UNL     1       0.380   3.370 -23.867  0.00  0.00    +0.054 C 
ATOM     12  N   UNL     1      -1.759   3.677 -23.877  0.00  0.00    -0.355 N 
ATOM     13  H   UNL     1      -1.719   4.179 -24.723  0.00  0.00    +0.166 HD
ATOM     14  C   UNL     1      -2.823   3.425 -23.206  0.00  0.00    +0.089 A 
ATOM     15  C   UNL     1      -4.073   3.726 -23.415  0.00  0.00    +0.144 A 
ATOM     16  C   UNL     1      -4.987   3.346 -22.566  0.00  0.00    +0.048 A 
ATOM     17  C   UNL     1      -4.649   2.664 -21.508  0.00  0.00    +0.004 A 
ATOM     18  C   UNL     1      -3.397   2.363 -21.299  0.00  0.00    +0.010 A 
ATOM     19  C   UNL     1      -2.485   2.743 -22.148  0.00  0.00    +0.007 A 
ATOM     20  C   UNL     1       1.421   2.162 -22.097  0.00  0.00    +0.138 C 
ATOM     21  C   UNL     1       1.646   3.097 -23.710  0.00  0.00    +0.018 C 
ENDROOT
BRANCH   1  23
ATOM     22  C   UNL     1       3.933   3.997 -23.603  0.00  0.00    +0.004 C 
ATOM     23  C   UNL     1       3.198   2.942 -23.816  0.00  0.00    +0.009 C 
ENDBRANCH   1  23
BRANCH  15  24
ATOM     24  O   UNL     1      -4.411   4.409 -24.474  0.00  0.00    -0.493 OA
ATOM     25  C   UNL     1      -4.796   3.788 -25.554  0.00  0.00    +0.277 C 
ENDBRANCH  15  24
TORSDOF 2
ENDMDL
MODEL 5
REMARK VINA RESULT:    -8.820      1.943      3.306
REMARK INTER + INTRA:          -9.788
REMARK INTER:                  -9.760
REMARK INTRA:                  -0.028
REMARK UNBOUND:                 0.063
REMARK  Name = ZINC000032275646
REMARK  4 active torsions:
REMARK  status: ('A' for Active; 'I' for Inactive)
REMARK    1  A    between atoms: C_1  and  C_2
REMARK    2  A    between atoms: C_2  and  C_3
REMARK    3  A    between atoms: C_14  and  O_15
REMARK    4  A    between atoms: O_15  and  C_16
REMARK                            x       y       z     vdW  Elec       q    Type
REMARK                         _______ _______ _______ _____ _____    ______ ____
ROOT
ATOM      1  C   UNL     1      -0.971   3.755 -22.870  0.00  0.00    +0.011 C 
ATOM      2  C   UNL     1      -2.232   3.560 -22.686  0.00  0.00    +0.017 C 
ATOM      3  C   UNL     1      -2.632   2.515 -22.017  0.00  0.00    +0.052 C 
ATOM      4  C   UNL     1      -1.773   1.679 -21.540  0.00  0.00    +0.131 C 
ATOM      5  N   UNL     1      -0.513   1.874 -21.724  0.00  0.00    +0.236 N 
ATOM      6  H   UNL     1      -1.109   1.185 -21.266  0.00  0.00    +0.203 HD
ATOM      7  C   UNL     1       0.709   1.450 -21.521  0.00  0.00    +0.136 C 
ATOM      8  C   UNL     1       1.917   1.801 -21.799  0.00  0.00    +0.088 C 
ATOM      9  C   UNL     1       2.546   2.758 -22.425  0.00  0.00    -0.014 A 
ATOM     10  C   UNL     1       2.282   3.837 -23.082  0.00  0.00    +0.020 A 
ATOM     11  C   UNL     1       1.265   4.539 -23.467  0.00  0.00    +0.054 C 
ATOM     12  N   UNL     1       3.418   4.354 -23.459  0.00  0.00    -0.355 N 
ATOM     13  H   UNL     1       3.527   5.183 -23.980  0.00  0.00    +0.166 HD
ATOM     14  C   UNL     1       4.369   3.603 -23.040  0.00  0.00    +0.089 A 
ATOM     15  C   UNL     1       5.664   3.693 -23.160  0.00  0.00    +0.144 A 
ATOM     16  C   UNL     1       6.433   2.782 -22.633  0.00  0.00    +0.048 A 
ATOM     17  C   UNL     1       5.907   1.780 -21.984  0.00  0.00    +0.004 A 
ATOM     18  C   UNL     1       4.611   1.691 -21.864  0.00  0.00    +0.010 A 
ATOM     19  C   UNL     1       3.843   2.602 -22.392  0.00  0.00    +0.007 A 
ATOM     20  C   UNL     1      -0.094   2.908 -22.387  0.00  0.00    +0.138 C 
ATOM     21  C   UNL     1      -0.036   4.501 -23.379  0.00  0.00    +0.018 C 
ENDROOT
BRANCH   1  23
ATOM     22  C   UNL     1      -2.302   4.530 -24.517  0.00  0.00    +0.004 C 
ATOM     23  C   UNL     1      -1.578   4.746 -23.455  0.00  0.00    +0.009 C 
ENDBRANCH   1  23
BRANCH  15  24
ATOM     24  O   UNL     1       6.191   4.694 -23.808  0.00  0.00    -0.493 OA
ATOM     25  C   UNL     1       7.445   5.001 -23.626  0.00  0.00    +0.277 C 
ENDBRANCH  15  24
TORSDOF 2
ENDMDL
MODEL 6
REMARK VINA RESULT:    -8.488      2.152      6.719
REMARK INTER + INTRA:          -9.418
REMARK INTER:                  -9.354
REMARK INTRA:                  -0.063
REMARK UNBOUND:                 0.063
REMARK  Name = ZINC000032275646
REMARK  4 active torsions:
REMARK  status: ('A' for Active; 'I' for Inactive)
REMARK    1  A    between atoms: C_1  and  C_2
REMARK    2  A    between atoms: C_2  and  C_3
REMARK    3  A    between atoms: C_14  and  O_15
REMARK    4  A    between atoms: O_15  and  C_16
REMARK                            x       y       z     vdW  Elec       q    Type
REMARK                         _______ _______ _______ _____ _____    ______ ____
ROOT
ATOM      1  C   UNL     1       4.448   3.438 -22.680  0.00  0.00    +0.011 C 
ATOM      2  C   UNL     1       5.689   3.207 -22.419  0.00  0.00    +0.017 C 
ATOM      3  C   UNL     1       6.008   2.249 -21.594  0.00  0.00    +0.052 C 
ATOM      4  C   UNL     1       5.088   1.535 -21.039  0.00  0.00    +0.131 C 
ATOM      5  N   UNL     1       3.847   1.766 -21.300  0.00  0.00    +0.236 N 
ATOM      6  H   UNL     1       4.388   1.120 -20.726  0.00  0.00    +0.203 HD
ATOM      7  C   UNL     1       2.597   1.437 -21.088  0.00  0.00    +0.136 C 
ATOM      8  C   UNL     1       1.421   1.806 -21.462  0.00  0.00    +0.088 C 
ATOM      9  C   UNL     1       0.868   2.695 -22.241  0.00  0.00    -0.014 A 
ATOM     10  C   UNL     1       1.213   3.653 -23.033  0.00  0.00    +0.020 A 
ATOM     11  C   UNL     1       2.280   4.240 -23.472  0.00  0.00    +0.054 C 
ATOM     12  N   UNL     1       0.121   4.168 -23.525  0.00  0.00    -0.355 N 
ATOM     13  H   UNL     1       0.076   4.919 -24.161  0.00  0.00    +0.166 HD
ATOM     14  C   UNL     1      -0.885   3.534 -23.042  0.00  0.00    +0.089 A 
ATOM     15  C   UNL     1      -2.168   3.672 -23.226  0.00  0.00    +0.144 A 
ATOM     16  C   UNL     1      -3.003   2.887 -22.607  0.00  0.00    +0.048 A 
ATOM     17  C   UNL     1      -2.555   1.963 -21.803  0.00  0.00    +0.004 A 
ATOM     18  C   UNL     1      -1.271   1.825 -21.620  0.00  0.00    +0.010 A 
ATOM     19  C   UNL     1      -0.437   2.611 -22.239  0.00  0.00    +0.007 A 
ATOM     20  C   UNL     1       3.509   2.714 -22.119  0.00  0.00    +0.138 C 
ATOM     21  C   UNL     1       3.573   4.149 -23.327  0.00  0.00    +0.018 C 
ENDROOT
BRANCH   1  23
ATOM     22  C   UNL     1       5.691   5.317 -22.780  0.00  0.00    +0.004 C 
ATOM     23  C   UNL     1       5.128   4.302 -23.374  0.00  0.00    +0.009 C 
ENDBRANCH   1  23
BRANCH  15  24
ATOM     24  O   UNL     1      -2.616   4.596 -24.030  0.00  0.00    -0.493 OA
ATOM     25  C   UNL     1      -2.947   4.291 -25.254  0.00  0.00    +0.277 C 
ENDBRANCH  15  24
TORSDOF 2
ENDMDL
