MODEL 1
REMARK VINA RESULT:   -10.480      0.000      0.000
REMARK INTER + INTRA:          -9.489
REMARK INTER:                 -11.811
REMARK INTRA:                   2.322
REMARK UNBOUND:                 2.216
REMARK  Name = COC1=CC=C2[C@H]3Cc4ccc(OC)c5c4[C@]2(CCN3C)[C@@]1(C)O5                ZINC000100393542
REMARK  6 active torsions:
REMARK  status: ('A' for Active; 'I' for Inactive)
REMARK    1  A    between atoms: C_1  and  O_2
REMARK    2  A    between atoms: O_2  and  C_3
REMARK    3  A    between atoms: C_12  and  O_13
REMARK    4  A    between atoms: O_13  and  C_14
REMARK    5  A    between atoms: N_20  and  C_21
REMARK    6  A    between atoms: C_22  and  C_23
REMARK                            x       y       z     vdW  Elec       q    Type
REMARK                         _______ _______ _______ _____ _____    ______ ____
ROOT
ATOM      1  C   UNL     1      -2.730   3.615 -25.357  0.00  0.00    +0.142 C 
ATOM      2  C   UNL     1      -3.867   3.723 -24.810  0.00  0.00    +0.045 C 
ATOM      3  C   UNL     1      -4.023   3.405 -23.608  0.00  0.00    +0.009 C 
ATOM      4  C   UNL     1      -3.041   2.974 -22.933  0.00  0.00    -0.007 C 
ATOM      5  C   UNL     1      -3.207   2.654 -21.718  0.00  0.00    +0.096 C 
ATOM      6  C   UNL     1      -2.237   2.228 -21.049  0.00  0.00    +0.094 C 
ATOM      7  C   UNL     1      -1.089   2.116 -21.590  0.00  0.00    -0.034 A 
ATOM      8  C   UNL     1      -0.117   1.688 -20.921  0.00  0.00    +0.008 A 
ATOM      9  C   UNL     1       1.011   1.579 -21.457  0.00  0.00    +0.050 A 
ATOM     10  C   UNL     1       1.179   1.898 -22.672  0.00  0.00    +0.162 A 
ATOM     11  C   UNL     1       0.195   2.330 -23.347  0.00  0.00    +0.168 A 
ATOM     12  O   UNL     1      -0.288   2.837 -24.677  0.00  0.00    -0.473 OA
ATOM     13  C   UNL     1      -0.942   2.438 -22.802  0.00  0.00    +0.016 A 
ATOM     14  N   UNL     1      -4.374   3.129 -22.389  0.00  0.00    +0.239 N 
ATOM     15  H   UNL     1      -5.279   3.206 -21.925  0.00  0.00    +0.204 HD
ATOM     16  C   UNL     1      -5.477   3.217 -21.802  0.00  0.00    +0.191 C 
ATOM     17  C   UNL     1      -4.226   3.494 -23.745  0.00  0.00    +0.133 C 
ATOM     18  C   UNL     1      -2.942   3.361 -24.322  0.00  0.00    +0.071 C 
ATOM     19  C   UNL     1      -1.913   2.865 -23.467  0.00  0.00    +0.077 C 
ATOM     20  C   UNL     1      -1.759   3.189 -24.691  0.00  0.00    +0.178 C 
ATOM     21  C   UNL     1      -1.324   3.426 -25.843  0.00  0.00    +0.065 C 
ENDROOT
BRANCH   1  23
ATOM     22  C   UNL     1      -3.383   3.520 -27.425  0.00  0.00    +0.276 C 
ATOM     23  O   UNL     1      -2.578   3.934 -26.560  0.00  0.00    -0.495 OA
ENDBRANCH   1  23
BRANCH  10  24
ATOM     24  O   UNL     1       2.308   1.788 -23.204  0.00  0.00    -0.491 OA
ATOM     25  C   UNL     1       2.992   0.755 -23.017  0.00  0.00    +0.277 C 
ENDBRANCH  10  24
TORSDOF 2
ENDMDL
MODEL 2
REMARK VINA RESULT:   -10.188      1.879      3.340
REMARK INTER + INTRA:          -9.163
REMARK INTER:                 -11.443
REMARK INTRA:                   2.279
REMARK UNBOUND:                 2.216
REMARK  Name = COC1=CC=C2[C@H]3Cc4ccc(OC)c5c4[C@]2(CCN3C)[C@@]1(C)O5                ZINC000100393542
REMARK  6 active torsions:
REMARK  status: ('A' for Active; 'I' for Inactive)
REMARK    1  A    between atoms: C_1  and  O_2
REMARK    2  A    between atoms: O_2  and  C_3
REMARK    3  A    between atoms: C_12  and  O_13
REMARK    4  A    between atoms: O_13  and  C_14
REMARK    5  A    between atoms: N_20  and  C_21
REMARK    6  A    between atoms: C_22  and  C_23
REMARK                            x       y       z     vdW  Elec       q    Type
REMARK                         _______ _______ _______ _____ _____    ______ ____
ROOT
ATOM      1  C   UNL     1      -4.525   3.202 -22.410  0.00  0.00    +0.142 C 
ATOM      2  C   UNL     1      -4.877   3.630 -23.548  0.00  0.00    +0.045 C 
ATOM      3  C   UNL     1      -4.039   3.718 -24.477  0.00  0.00    +0.009 C 
ATOM      4  C   UNL     1      -2.835   3.380 -24.278  0.00  0.00    -0.007 C 
ATOM      5  C   UNL     1      -1.993   3.472 -25.222  0.00  0.00    +0.096 C 
ATOM      6  C   UNL     1      -0.802   3.138 -25.028  0.00  0.00    +0.094 C 
ATOM      7  C   UNL     1      -0.439   2.707 -23.886  0.00  0.00    -0.034 A 
ATOM      8  C   UNL     1       0.756   2.371 -23.690  0.00  0.00    +0.008 A 
ATOM      9  C   UNL     1       1.109   1.948 -22.565  0.00  0.00    +0.050 A 
ATOM     10  C   UNL     1       0.270   1.855 -21.620  0.00  0.00    +0.162 A 
ATOM     11  C   UNL     1      -0.937   2.194 -21.820  0.00  0.00    +0.168 A 
ATOM     12  O   UNL     1      -2.314   2.334 -21.233  0.00  0.00    -0.473 OA
ATOM     13  C   UNL     1      -1.289   2.621 -22.957  0.00  0.00    +0.016 A 
ATOM     14  N   UNL     1      -3.323   3.878 -25.547  0.00  0.00    +0.239 N 
ATOM     15  H   UNL     1      -3.580   4.219 -26.474  0.00  0.00    +0.204 HD
ATOM     16  C   UNL     1      -3.619   4.294 -26.691  0.00  0.00    +0.191 C 
ATOM     17  C   UNL     1      -4.286   3.788 -24.519  0.00  0.00    +0.133 C 
ATOM     18  C   UNL     1      -3.859   3.307 -23.261  0.00  0.00    +0.071 C 
ATOM     19  C   UNL     1      -2.479   2.956 -23.154  0.00  0.00    +0.077 C 
ATOM     20  C   UNL     1      -3.335   2.867 -22.213  0.00  0.00    +0.178 C 
ATOM     21  C   UNL     1      -3.942   2.679 -21.131  0.00  0.00    +0.065 C 
ENDROOT
BRANCH   1  23
ATOM     22  C   UNL     1      -6.523   2.700 -21.725  0.00  0.00    +0.276 C 
ATOM     23  O   UNL     1      -5.366   3.115 -21.484  0.00  0.00    -0.495 OA
ENDBRANCH   1  23
BRANCH  10  24
ATOM     24  O   UNL     1       0.627   1.430 -20.497  0.00  0.00    -0.491 OA
ATOM     25  C   UNL     1       1.842   1.414 -20.189  0.00  0.00    +0.277 C 
ENDBRANCH  10  24
TORSDOF 2
ENDMDL
MODEL 3
REMARK VINA RESULT:   -10.103      2.133      5.537
REMARK INTER + INTRA:          -9.068
REMARK INTER:                 -11.294
REMARK INTRA:                   2.226
REMARK UNBOUND:                 2.216
REMARK  Name = COC1=CC=C2[C@H]3Cc4ccc(OC)c5c4[C@]2(CCN3C)[C@@]1(C)O5                ZINC000100393542
REMARK  6 active torsions:
REMARK  status: ('A' for Active; 'I' for Inactive)
REMARK    1  A    between atoms: C_1  and  O_2
REMARK    2  A    between atoms: O_2  and  C_3
REMARK    3  A    between atoms: C_12  and  O_13
REMARK    4  A    between atoms: O_13  and  C_14
REMARK    5  A    between atoms: N_20  and  C_21
REMARK    6  A    between atoms: C_22  and  C_23
REMARK                            x       y       z     vdW  Elec       q    Type
REMARK                         _______ _______ _______ _____ _____    ______ ____
ROOT
ATOM      1  C   UNL     1       0.261   1.946 -21.936  0.00  0.00    +0.142 C 
ATOM      2  C   UNL     1       1.065   2.288 -22.852  0.00  0.00    +0.045 C 
ATOM      3  C   UNL     1       0.647   2.905 -23.860  0.00  0.00    +0.009 C 
ATOM      4  C   UNL     1      -0.582   3.188 -23.967  0.00  0.00    -0.007 C 
ATOM      5  C   UNL     1      -0.997   3.812 -24.990  0.00  0.00    +0.096 C 
ATOM      6  C   UNL     1      -2.212   4.093 -25.097  0.00  0.00    +0.094 C 
ATOM      7  C   UNL     1      -3.029   3.752 -24.181  0.00  0.00    -0.034 A 
ATOM      8  C   UNL     1      -4.249   4.033 -24.288  0.00  0.00    +0.008 A 
ATOM      9  C   UNL     1      -5.048   3.696 -23.384  0.00  0.00    +0.050 A 
ATOM     10  C   UNL     1      -4.637   3.072 -22.361  0.00  0.00    +0.162 A 
ATOM     11  C   UNL     1      -3.404   2.789 -22.254  0.00  0.00    +0.168 A 
ATOM     12  O   UNL     1      -2.333   2.145 -21.420  0.00  0.00    -0.473 OA
ATOM     13  C   UNL     1      -2.600   3.131 -23.169  0.00  0.00    +0.016 A 
ATOM     14  N   UNL     1       0.405   3.541 -24.965  0.00  0.00    +0.239 N 
ATOM     15  H   UNL     1       1.031   3.829 -25.718  0.00  0.00    +0.204 HD
ATOM     16  C   UNL     1       1.158   3.903 -25.898  0.00  0.00    +0.191 C 
ATOM     17  C   UNL     1       0.901   2.848 -23.840  0.00  0.00    +0.133 C 
ATOM     18  C   UNL     1      -0.025   2.481 -22.837  0.00  0.00    +0.071 C 
ATOM     19  C   UNL     1      -1.384   2.852 -23.065  0.00  0.00    +0.077 C 
ATOM     20  C   UNL     1      -0.955   2.225 -22.040  0.00  0.00    +0.178 C 
ATOM     21  C   UNL     1      -0.822   1.617 -20.951  0.00  0.00    +0.065 C 
ENDROOT
BRANCH   1  23
ATOM     22  C   UNL     1       1.860   1.497 -20.538  0.00  0.00    +0.276 C 
ATOM     23  O   UNL     1       0.681   1.329 -20.928  0.00  0.00    -0.495 OA
ENDBRANCH   1  23
BRANCH  10  24
ATOM     24  O   UNL     1      -5.440   2.737 -21.459  0.00  0.00    -0.491 OA
ATOM     25  C   UNL     1      -6.656   2.594 -21.723  0.00  0.00    +0.277 C 
ENDBRANCH  10  24
TORSDOF 2
ENDMDL
MODEL 4
REMARK VINA RESULT:    -9.418      3.051      6.721
REMARK INTER + INTRA:          -8.304
REMARK INTER:                 -10.572
REMARK INTRA:                   2.268
REMARK UNBOUND:                 2.216
REMARK  Name = COC1=CC=C2[C@H]3Cc4ccc(OC)c5c4[C@]2(CCN3C)[C@@]1(C)O5                ZINC000100393542
REMARK  6 active torsions:
REMARK  status: ('A' for Active; 'I' for Inactive)
REMARK    1  A    between atoms: C_1  and  O_2
REMARK    2  A    between atoms: O_2  and  C_3
REMARK    3  A    between atoms: C_12  and  O_13
REMARK    4  A    between atoms: O_13  and  C_14
REMARK    5  A    between atoms: N_20  and  C_21
REMARK    6  A    between atoms: C_22  and  C_23
REMARK                            x       y       z     vdW  Elec       q    Type
REMARK                         _______ _______ _______ _____ _____    ______ ____
ROOT
ATOM      1  C   UNL     1       3.661   1.409 -22.066  0.00  0.00    +0.142 C 
ATOM      2  C   UNL     1       4.652   2.195 -22.103  0.00  0.00    +0.045 C 
ATOM      3  C   UNL     1       4.502   3.385 -22.468  0.00  0.00    +0.009 C 
ATOM      4  C   UNL     1       3.355   3.805 -22.802  0.00  0.00    -0.007 C 
ATOM      5  C   UNL     1       3.210   5.010 -23.171  0.00  0.00    +0.096 C 
ATOM      6  C   UNL     1       2.077   5.428 -23.502  0.00  0.00    +0.094 C 
ATOM      7  C   UNL     1       1.073   4.644 -23.468  0.00  0.00    -0.034 A 
ATOM      8  C   UNL     1      -0.064   5.062 -23.799  0.00  0.00    +0.008 A 
ATOM      9  C   UNL     1      -1.048   4.287 -23.764  0.00  0.00    +0.050 A 
ATOM     10  C   UNL     1      -0.907   3.083 -23.397  0.00  0.00    +0.162 A 
ATOM     11  C   UNL     1       0.243   2.662 -23.062  0.00  0.00    +0.168 A 
ATOM     12  O   UNL     1       1.061   1.498 -22.578  0.00  0.00    -0.473 OA
ATOM     13  C   UNL     1       1.234   3.447 -23.099  0.00  0.00    +0.016 A 
ATOM     14  N   UNL     1       4.541   4.635 -22.815  0.00  0.00    +0.239 N 
ATOM     15  H   UNL     1       5.323   5.289 -22.854  0.00  0.00    +0.204 HD
ATOM     16  C   UNL     1       5.488   5.452 -22.869  0.00  0.00    +0.191 C 
ATOM     17  C   UNL     1       4.738   3.300 -22.400  0.00  0.00    +0.133 C 
ATOM     18  C   UNL     1       3.609   2.450 -22.371  0.00  0.00    +0.071 C 
ATOM     19  C   UNL     1       2.369   3.033 -22.768  0.00  0.00    +0.077 C 
ATOM     20  C   UNL     1       2.526   1.823 -22.396  0.00  0.00    +0.178 C 
ATOM     21  C   UNL     1       2.387   0.618 -22.080  0.00  0.00    +0.065 C 
ENDROOT
BRANCH   1  23
ATOM     22  C   UNL     1       4.590  -0.050 -20.753  0.00  0.00    +0.276 C 
ATOM     23  O   UNL     1       3.815   0.219 -21.700  0.00  0.00    -0.495 OA
ENDBRANCH   1  23
BRANCH  10  24
ATOM     24  O   UNL     1      -1.894   2.312 -23.363  0.00  0.00    -0.491 OA
ATOM     25  C   UNL     1      -2.969   2.691 -22.843  0.00  0.00    +0.277 C 
ENDBRANCH  10  24
TORSDOF 2
ENDMDL
MODEL 5
REMARK VINA RESULT:    -9.383      1.633      4.586
REMARK INTER + INTRA:          -8.264
REMARK INTER:                 -10.556
REMARK INTRA:                   2.292
REMARK UNBOUND:                 2.216
REMARK  Name = COC1=CC=C2[C@H]3Cc4ccc(OC)c5c4[C@]2(CCN3C)[C@@]1(C)O5                ZINC000100393542
REMARK  6 active torsions:
REMARK  status: ('A' for Active; 'I' for Inactive)
REMARK    1  A    between atoms: C_1  and  O_2
REMARK    2  A    between atoms: O_2  and  C_3
REMARK    3  A    between atoms: C_12  and  O_13
REMARK    4  A    between atoms: O_13  and  C_14
REMARK    5  A    between atoms: N_20  and  C_21
REMARK    6  A    between atoms: C_22  and  C_23
REMARK                            x       y       z     vdW  Elec       q    Type
REMARK                         _______ _______ _______ _____ _____    ______ ____
ROOT
ATOM      1  C   UNL     1       0.423   2.896 -24.418  0.00  0.00    +0.142 C 
ATOM      2  C   UNL     1       1.121   2.435 -23.469  0.00  0.00    +0.045 C 
ATOM      3  C   UNL     1       0.592   2.179 -22.361  0.00  0.00    +0.009 C 
ATOM      4  C   UNL     1      -0.646   2.383 -22.188  0.00  0.00    -0.007 C 
ATOM      5  C   UNL     1      -1.174   2.122 -21.066  0.00  0.00    +0.096 C 
ATOM      6  C   UNL     1      -2.398   2.322 -20.892  0.00  0.00    +0.094 C 
ATOM      7  C   UNL     1      -3.109   2.786 -21.842  0.00  0.00    -0.034 A 
ATOM      8  C   UNL     1      -4.337   2.988 -21.669  0.00  0.00    +0.008 A 
ATOM      9  C   UNL     1      -5.033   3.445 -22.606  0.00  0.00    +0.050 A 
ATOM     10  C   UNL     1      -4.507   3.706 -23.729  0.00  0.00    +0.162 A 
ATOM     11  C   UNL     1      -3.267   3.502 -23.902  0.00  0.00    +0.168 A 
ATOM     12  O   UNL     1      -2.104   3.572 -24.852  0.00  0.00    -0.473 OA
ATOM     13  C   UNL     1      -2.568   3.041 -22.954  0.00  0.00    +0.016 A 
ATOM     14  N   UNL     1       0.226   1.858 -21.158  0.00  0.00    +0.239 N 
ATOM     15  H   UNL     1       0.765   1.485 -20.377  0.00  0.00    +0.204 HD
ATOM     16  C   UNL     1       0.871   1.400 -20.188  0.00  0.00    +0.191 C 
ATOM     17  C   UNL     1       0.846   2.137 -22.395  0.00  0.00    +0.133 C 
ATOM     18  C   UNL     1       0.037   2.651 -23.433  0.00  0.00    +0.071 C 
ATOM     19  C   UNL     1      -1.344   2.839 -23.123  0.00  0.00    +0.077 C 
ATOM     20  C   UNL     1      -0.801   3.098 -24.248  0.00  0.00    +0.178 C 
ATOM     21  C   UNL     1      -0.546   3.435 -25.429  0.00  0.00    +0.065 C 
ENDROOT
BRANCH   1  23
ATOM     22  C   UNL     1       1.929   2.470 -25.923  0.00  0.00    +0.276 C 
ATOM     23  O   UNL     1       0.956   3.151 -25.525  0.00  0.00    -0.495 OA
ENDBRANCH   1  23
BRANCH  10  24
ATOM     24  O   UNL     1      -5.206   4.163 -24.663  0.00  0.00    -0.491 OA
ATOM     25  C   UNL     1      -5.266   3.556 -25.758  0.00  0.00    +0.277 C 
ENDBRANCH  10  24
TORSDOF 2
ENDMDL
MODEL 6
REMARK VINA RESULT:    -8.760      1.922      4.479
REMARK INTER + INTRA:          -7.568
REMARK INTER:                  -9.896
REMARK INTRA:                   2.328
REMARK UNBOUND:                 2.216
REMARK  Name = COC1=CC=C2[C@H]3Cc4ccc(OC)c5c4[C@]2(CCN3C)[C@@]1(C)O5                ZINC000100393542
REMARK  6 active torsions:
REMARK  status: ('A' for Active; 'I' for Inactive)
REMARK    1  A    between atoms: C_1  and  O_2
REMARK    2  A    between atoms: O_2  and  C_3
REMARK    3  A    between atoms: C_12  and  O_13
REMARK    4  A    between atoms: O_13  and  C_14
REMARK    5  A    between atoms: N_20  and  C_21
REMARK    6  A    between atoms: C_22  and  C_23
REMARK                            x       y       z     vdW  Elec       q    Type
REMARK                         _______ _______ _______ _____ _____    ______ ____
ROOT
ATOM      1  C   UNL     1      -0.443   3.277 -24.527  0.00  0.00    +0.142 C 
ATOM      2  C   UNL     1      -0.727   3.406 -25.754  0.00  0.00    +0.045 C 
ATOM      3  C   UNL     1      -1.922   3.502 -26.119  0.00  0.00    +0.009 C 
ATOM      4  C   UNL     1      -2.852   3.471 -25.260  0.00  0.00    -0.007 C 
ATOM      5  C   UNL     1      -4.059   3.569 -25.637  0.00  0.00    +0.096 C 
ATOM      6  C   UNL     1      -4.980   3.538 -24.789  0.00  0.00    +0.094 C 
ATOM      7  C   UNL     1      -4.704   3.408 -23.552  0.00  0.00    -0.034 A 
ATOM      8  C   UNL     1      -5.627   3.377 -22.701  0.00  0.00    +0.008 A 
ATOM      9  C   UNL     1      -5.351   3.249 -21.486  0.00  0.00    +0.050 A 
ATOM     10  C   UNL     1      -4.146   3.151 -21.106  0.00  0.00    +0.162 A 
ATOM     11  C   UNL     1      -3.215   3.183 -21.968  0.00  0.00    +0.168 A 
ATOM     12  O   UNL     1      -1.734   3.128 -22.215  0.00  0.00    -0.473 OA
ATOM     13  C   UNL     1      -3.498   3.312 -23.194  0.00  0.00    +0.016 A 
ATOM     14  N   UNL     1      -3.086   3.616 -26.682  0.00  0.00    +0.239 N 
ATOM     15  H   UNL     1      -3.342   3.721 -27.664  0.00  0.00    +0.204 HD
ATOM     16  C   UNL     1      -3.420   3.745 -27.882  0.00  0.00    +0.191 C 
ATOM     17  C   UNL     1      -1.732   3.509 -26.297  0.00  0.00    +0.133 C 
ATOM     18  C   UNL     1      -1.452   3.366 -24.919  0.00  0.00    +0.071 C 
ATOM     19  C   UNL     1      -2.579   3.343 -24.044  0.00  0.00    +0.077 C 
ATOM     20  C   UNL     1      -1.361   3.245 -23.677  0.00  0.00    +0.178 C 
ATOM     21  C   UNL     1      -0.286   3.130 -23.043  0.00  0.00    +0.065 C 
ENDROOT
BRANCH   1  23
ATOM     22  C   UNL     1       1.662   3.687 -24.863  0.00  0.00    +0.276 C 
ATOM     23  O   UNL     1       0.754   3.180 -24.165  0.00  0.00    -0.495 OA
ENDBRANCH   1  23
BRANCH  10  24
ATOM     24  O   UNL     1      -3.875   3.023 -19.890  0.00  0.00    -0.491 OA
ATOM     25  C   UNL     1      -3.034   3.779 -19.351  0.00  0.00    +0.277 C 
ENDBRANCH  10  24
TORSDOF 2
ENDMDL
MODEL 7
REMARK VINA RESULT:    -8.672      1.068      4.579
REMARK INTER + INTRA:          -7.470
REMARK INTER:                  -9.711
REMARK INTRA:                   2.242
REMARK UNBOUND:                 2.216
REMARK  Name = COC1=CC=C2[C@H]3Cc4ccc(OC)c5c4[C@]2(CCN3C)[C@@]1(C)O5                ZINC000100393542
REMARK  6 active torsions:
REMARK  status: ('A' for Active; 'I' for Inactive)
REMARK    1  A    between atoms: C_1  and  O_2
REMARK    2  A    between atoms: O_2  and  C_3
REMARK    3  A    between atoms: C_12  and  O_13
REMARK    4  A    between atoms: O_13  and  C_14
REMARK    5  A    between atoms: N_20  and  C_21
REMARK    6  A    between atoms: C_22  and  C_23
REMARK                            x       y       z     vdW  Elec       q    Type
REMARK                         _______ _______ _______ _____ _____    ______ ____
ROOT
ATOM      1  C   UNL     1      -0.303   2.578 -22.453  0.00  0.00    +0.142 C 
ATOM      2  C   UNL     1      -0.773   2.608 -21.278  0.00  0.00    +0.045 C 
ATOM      3  C   UNL     1      -1.985   2.871 -21.089  0.00  0.00    +0.009 C 
ATOM      4  C   UNL     1      -2.744   3.106 -22.075  0.00  0.00    -0.007 C 
ATOM      5  C   UNL     1      -3.968   3.370 -21.875  0.00  0.00    +0.096 C 
ATOM      6  C   UNL     1      -4.720   3.604 -22.849  0.00  0.00    +0.094 C 
ATOM      7  C   UNL     1      -4.256   3.575 -24.035  0.00  0.00    -0.034 A 
ATOM      8  C   UNL     1      -5.011   3.809 -25.012  0.00  0.00    +0.008 A 
ATOM      9  C   UNL     1      -4.550   3.780 -26.177  0.00  0.00    +0.050 A 
ATOM     10  C   UNL     1      -3.327   3.516 -26.379  0.00  0.00    +0.162 A 
ATOM     11  C   UNL     1      -2.567   3.280 -25.390  0.00  0.00    +0.168 A 
ATOM     12  O   UNL     1      -1.178   2.936 -24.931  0.00  0.00    -0.473 OA
ATOM     13  C   UNL     1      -3.036   3.310 -24.216  0.00  0.00    +0.016 A 
ATOM     14  N   UNL     1      -3.197   3.120 -20.700  0.00  0.00    +0.239 N 
ATOM     15  H   UNL     1      -3.602   3.151 -19.763  0.00  0.00    +0.204 HD
ATOM     16  C   UNL     1      -3.712   3.163 -19.559  0.00  0.00    +0.191 C 
ATOM     17  C   UNL     1      -1.830   2.822 -20.885  0.00  0.00    +0.133 C 
ATOM     18  C   UNL     1      -1.339   2.797 -22.210  0.00  0.00    +0.071 C 
ATOM     19  C   UNL     1      -2.286   3.078 -23.241  0.00  0.00    +0.077 C 
ATOM     20  C   UNL     1      -1.053   2.811 -23.428  0.00  0.00    +0.178 C 
ATOM     21  C   UNL     1       0.086   2.583 -23.901  0.00  0.00    +0.065 C 
ENDROOT
BRANCH   1  23
ATOM     22  C   UNL     1       1.495   1.500 -21.890  0.00  0.00    +0.276 C 
ATOM     23  O   UNL     1       0.909   2.315 -22.639  0.00  0.00    -0.495 OA
ENDBRANCH   1  23
BRANCH  10  24
ATOM     24  O   UNL     1      -2.871   3.488 -27.545  0.00  0.00    -0.491 OA
ATOM     25  C   UNL     1      -3.651   3.420 -28.523  0.00  0.00    +0.277 C 
ENDBRANCH  10  24
TORSDOF 2
ENDMDL
MODEL 8
REMARK VINA RESULT:    -8.543      2.785      5.928
REMARK INTER + INTRA:          -7.326
REMARK INTER:                  -9.525
REMARK INTRA:                   2.199
REMARK UNBOUND:                 2.216
REMARK  Name = COC1=CC=C2[C@H]3Cc4ccc(OC)c5c4[C@]2(CCN3C)[C@@]1(C)O5                ZINC000100393542
REMARK  6 active torsions:
REMARK  status: ('A' for Active; 'I' for Inactive)
REMARK    1  A    between atoms: C_1  and  O_2
REMARK    2  A    between atoms: O_2  and  C_3
REMARK    3  A    between atoms: C_12  and  O_13
REMARK    4  A    between atoms: O_13  and  C_14
REMARK    5  A    between atoms: N_20  and  C_21
REMARK    6  A    between atoms: C_22  and  C_23
REMARK                            x       y       z     vdW  Elec       q    Type
REMARK                         _______ _______ _______ _____ _____    ______ ____
ROOT
ATOM      1  C   UNL     1       3.534   4.183 -22.941  0.00  0.00    +0.142 C 
ATOM      2  C   UNL     1       4.144   3.229 -22.374  0.00  0.00    +0.045 C 
ATOM      3  C   UNL     1       3.508   2.234 -21.955  0.00  0.00    +0.009 C 
ATOM      4  C   UNL     1       2.251   2.179 -22.096  0.00  0.00    -0.007 C 
ATOM      5  C   UNL     1       1.615   1.169 -21.669  0.00  0.00    +0.096 C 
ATOM      6  C   UNL     1       0.371   1.112 -21.808  0.00  0.00    +0.094 C 
ATOM      7  C   UNL     1      -0.251   2.067 -22.377  0.00  0.00    -0.034 A 
ATOM      8  C   UNL     1      -1.498   2.011 -22.517  0.00  0.00    +0.008 A 
ATOM      9  C   UNL     1      -2.106   2.953 -23.078  0.00  0.00    +0.050 A 
ATOM     10  C   UNL     1      -1.472   3.963 -23.505  0.00  0.00    +0.162 A 
ATOM     11  C   UNL     1      -0.212   4.018 -23.363  0.00  0.00    +0.168 A 
ATOM     12  O   UNL     1       1.043   4.811 -23.596  0.00  0.00    -0.473 OA
ATOM     13  C   UNL     1       0.398   3.065 -22.797  0.00  0.00    +0.016 A 
ATOM     14  N   UNL     1       3.027   1.134 -21.461  0.00  0.00    +0.239 N 
ATOM     15  H   UNL     1       3.493   0.352 -21.001  0.00  0.00    +0.204 HD
ATOM     16  C   UNL     1       3.581   0.165 -20.894  0.00  0.00    +0.191 C 
ATOM     17  C   UNL     1       3.766   2.243 -21.925  0.00  0.00    +0.133 C 
ATOM     18  C   UNL     1       3.054   3.290 -22.552  0.00  0.00    +0.071 C 
ATOM     19  C   UNL     1       1.640   3.119 -22.656  0.00  0.00    +0.077 C 
ATOM     20  C   UNL     1       2.291   4.130 -23.082  0.00  0.00    +0.178 C 
ATOM     21  C   UNL     1       2.660   5.218 -23.585  0.00  0.00    +0.065 C 
ENDROOT
BRANCH   1  23
ATOM     22  C   UNL     1       5.335   5.396 -22.945  0.00  0.00    +0.276 C 
ATOM     23  O   UNL     1       4.174   5.178 -23.360  0.00  0.00    -0.495 OA
ENDBRANCH   1  23
BRANCH  10  24
ATOM     24  O   UNL     1      -2.084   4.903 -24.065  0.00  0.00    -0.491 OA
ATOM     25  C   UNL     1      -3.119   4.669 -24.732  0.00  0.00    +0.277 C 
ENDBRANCH  10  24
TORSDOF 2
ENDMDL
MODEL 9
REMARK VINA RESULT:    -8.529      1.563      2.508
REMARK INTER + INTRA:          -7.311
REMARK INTER:                  -9.527
REMARK INTRA:                   2.216
REMARK UNBOUND:                 2.216
REMARK  Name = COC1=CC=C2[C@H]3Cc4ccc(OC)c5c4[C@]2(CCN3C)[C@@]1(C)O5                ZINC000100393542
REMARK  6 active torsions:
REMARK  status: ('A' for Active; 'I' for Inactive)
REMARK    1  A    between atoms: C_1  and  O_2
REMARK    2  A    between atoms: O_2  and  C_3
REMARK    3  A    between atoms: C_12  and  O_13
REMARK    4  A    between atoms: O_13  and  C_14
REMARK    5  A    between atoms: N_20  and  C_21
REMARK    6  A    between atoms: C_22  and  C_23
REMARK                            x       y       z     vdW  Elec       q    Type
REMARK                         _______ _______ _______ _____ _____    ______ ____
ROOT
ATOM      1  C   UNL     1      -0.869   3.251 -24.630  0.00  0.00    +0.142 C 
ATOM      2  C   UNL     1      -1.908   2.979 -23.960  0.00  0.00    +0.045 C 
ATOM      3  C   UNL     1      -1.808   2.468 -22.819  0.00  0.00    +0.009 C 
ATOM      4  C   UNL     1      -0.665   2.224 -22.332  0.00  0.00    -0.007 C 
ATOM      5  C   UNL     1      -0.572   1.708 -21.178  0.00  0.00    +0.096 C 
ATOM      6  C   UNL     1       0.558   1.465 -20.694  0.00  0.00    +0.094 C 
ATOM      7  C   UNL     1       1.609   1.736 -21.361  0.00  0.00    -0.034 A 
ATOM      8  C   UNL     1       2.742   1.492 -20.877  0.00  0.00    +0.008 A 
ATOM      9  C   UNL     1       3.773   1.760 -21.537  0.00  0.00    +0.050 A 
ATOM     10  C   UNL     1       3.683   2.276 -22.691  0.00  0.00    +0.162 A 
ATOM     11  C   UNL     1       2.537   2.521 -23.178  0.00  0.00    +0.168 A 
ATOM     12  O   UNL     1       1.760   3.060 -24.346  0.00  0.00    -0.473 OA
ATOM     13  C   UNL     1       1.498   2.249 -22.509  0.00  0.00    +0.016 A 
ATOM     14  N   UNL     1      -1.903   1.944 -21.636  0.00  0.00    +0.239 N 
ATOM     15  H   UNL     1      -2.724   1.715 -21.075  0.00  0.00    +0.204 HD
ATOM     16  C   UNL     1      -2.898   1.656 -20.932  0.00  0.00    +0.191 C 
ATOM     17  C   UNL     1      -2.044   2.518 -22.918  0.00  0.00    +0.133 C 
ATOM     18  C   UNL     1      -0.863   2.809 -23.638  0.00  0.00    +0.071 C 
ATOM     19  C   UNL     1       0.368   2.491 -22.989  0.00  0.00    +0.077 C 
ATOM     20  C   UNL     1       0.262   3.009 -24.150  0.00  0.00    +0.178 C 
ATOM     21  C   UNL     1       0.456   3.509 -25.283  0.00  0.00    +0.065 C 
ENDROOT
BRANCH   1  23
ATOM     22  C   UNL     1      -2.030   3.617 -26.428  0.00  0.00    +0.276 C 
ATOM     23  O   UNL     1      -0.973   3.761 -25.771  0.00  0.00    -0.495 OA
ENDBRANCH   1  23
BRANCH  10  24
ATOM     24  O   UNL     1       4.717   2.542 -23.346  0.00  0.00    -0.491 OA
ATOM     25  C   UNL     1       5.844   2.447 -22.808  0.00  0.00    +0.277 C 
ENDBRANCH  10  24
TORSDOF 2
ENDMDL
