MODEL 1
REMARK VINA RESULT:   -10.481      0.000      0.000
REMARK INTER + INTRA:         -10.696
REMARK INTER:                 -11.628
REMARK INTRA:                   0.932
REMARK UNBOUND:                 1.011
REMARK  Name = COC1=C[C@]2(C)Oc3c(OC)ccc4c3[C@]23CCN(C)[C@H](C4)C3=C1               ZINC000100393714
REMARK  6 active torsions:
REMARK  status: ('A' for Active; 'I' for Inactive)
REMARK    1  A    between atoms: C_1  and  O_2
REMARK    2  A    between atoms: O_2  and  C_3
REMARK    3  A    between atoms: C_5  and  C_6
REMARK    4  A    between atoms: C_9  and  O_10
REMARK    5  A    between atoms: O_10  and  C_11
REMARK    6  A    between atoms: N_19  and  C_20
REMARK                            x       y       z     vdW  Elec       q    Type
REMARK                         _______ _______ _______ _____ _____    ______ ____
ROOT
ATOM      1  C   UNL     1      -3.160   3.859 -24.626  0.00  0.00    +0.120 C 
ATOM      2  C   UNL     1      -2.009   3.823 -25.154  0.00  0.00    +0.066 C 
ATOM      3  C   UNL     1      -1.045   3.345 -24.513  0.00  0.00    +0.143 C 
ATOM      4  O   UNL     1       0.431   3.014 -24.501  0.00  0.00    -0.477 OA
ATOM      5  C   UNL     1       0.893   2.381 -23.219  0.00  0.00    +0.168 A 
ATOM      6  C   UNL     1       1.869   1.896 -22.569  0.00  0.00    +0.162 A 
ATOM      7  C   UNL     1       1.681   1.452 -21.397  0.00  0.00    +0.050 A 
ATOM      8  C   UNL     1       0.541   1.489 -20.879  0.00  0.00    +0.008 A 
ATOM      9  C   UNL     1      -0.425   1.970 -21.523  0.00  0.00    -0.034 A 
ATOM     10  C   UNL     1      -1.586   2.010 -21.000  0.00  0.00    +0.094 C 
ATOM     11  C   UNL     1      -2.547   2.489 -21.644  0.00  0.00    +0.097 C 
ATOM     12  C   UNL     1      -2.362   2.933 -22.816  0.00  0.00    -0.003 C 
ATOM     13  N   UNL     1      -3.707   3.012 -22.289  0.00  0.00    +0.239 N 
ATOM     14  H   UNL     1      -4.622   3.027 -21.838  0.00  0.00    +0.204 HD
ATOM     15  C   UNL     1      -4.824   3.024 -21.722  0.00  0.00    +0.191 C 
ATOM     16  C   UNL     1      -3.536   3.516 -23.597  0.00  0.00    +0.133 C 
ATOM     17  C   UNL     1      -2.239   3.461 -24.156  0.00  0.00    +0.071 C 
ATOM     18  C   UNL     1      -0.257   2.417 -22.692  0.00  0.00    +0.016 A 
ATOM     19  C   UNL     1      -0.590   3.705 -25.625  0.00  0.00    +0.062 C 
ATOM     20  C   UNL     1      -1.221   2.895 -23.333  0.00  0.00    +0.074 C 
ATOM     21  C   UNL     1      -3.336   3.417 -23.466  0.00  0.00    +0.051 C 
ENDROOT
BRANCH   1  23
ATOM     22  C   UNL     1      -4.934   3.575 -25.843  0.00  0.00    +0.277 C 
ATOM     23  O   UNL     1      -4.125   4.337 -25.265  0.00  0.00    -0.495 OA
ENDBRANCH   1  23
BRANCH   6  24
ATOM     24  O   UNL     1       3.011   1.857 -23.083  0.00  0.00    -0.491 OA
ATOM     25  C   UNL     1       3.287   0.978 -23.933  0.00  0.00    +0.277 C 
ENDBRANCH   6  24
TORSDOF 2
ENDMDL
MODEL 2
REMARK VINA RESULT:   -10.425      1.481      3.087
REMARK INTER + INTRA:         -10.634
REMARK INTER:                 -11.601
REMARK INTRA:                   0.967
REMARK UNBOUND:                 1.011
REMARK  Name = COC1=C[C@]2(C)Oc3c(OC)ccc4c3[C@]23CCN(C)[C@H](C4)C3=C1               ZINC000100393714
REMARK  6 active torsions:
REMARK  status: ('A' for Active; 'I' for Inactive)
REMARK    1  A    between atoms: C_1  and  O_2
REMARK    2  A    between atoms: O_2  and  C_3
REMARK    3  A    between atoms: C_5  and  C_6
REMARK    4  A    between atoms: C_9  and  O_10
REMARK    5  A    between atoms: O_10  and  C_11
REMARK    6  A    between atoms: N_19  and  C_20
REMARK                            x       y       z     vdW  Elec       q    Type
REMARK                         _______ _______ _______ _____ _____    ______ ____
ROOT
ATOM      1  C   UNL     1      -4.467   3.466 -22.418  0.00  0.00    +0.120 C 
ATOM      2  C   UNL     1      -3.555   3.234 -21.569  0.00  0.00    +0.066 C 
ATOM      3  C   UNL     1      -2.367   3.119 -21.948  0.00  0.00    +0.143 C 
ATOM      4  O   UNL     1      -0.928   2.872 -21.553  0.00  0.00    -0.477 OA
ATOM      5  C   UNL     1       0.025   2.890 -22.715  0.00  0.00    +0.168 A 
ATOM      6  C   UNL     1       1.228   2.774 -23.099  0.00  0.00    +0.162 A 
ATOM      7  C   UNL     1       1.505   2.892 -24.330  0.00  0.00    +0.050 A 
ATOM      8  C   UNL     1       0.601   3.122 -25.166  0.00  0.00    +0.008 A 
ATOM      9  C   UNL     1      -0.590   3.236 -24.784  0.00  0.00    -0.034 A 
ATOM     10  C   UNL     1      -1.513   3.470 -25.631  0.00  0.00    +0.094 C 
ATOM     11  C   UNL     1      -2.700   3.584 -25.249  0.00  0.00    +0.097 C 
ATOM     12  C   UNL     1      -2.981   3.466 -24.018  0.00  0.00    -0.003 C 
ATOM     13  N   UNL     1      -4.081   3.731 -24.920  0.00  0.00    +0.239 N 
ATOM     14  H   UNL     1      -4.793   3.918 -25.626  0.00  0.00    +0.204 HD
ATOM     15  C   UNL     1      -4.944   3.961 -25.798  0.00  0.00    +0.191 C 
ATOM     16  C   UNL     1      -4.429   3.606 -23.556  0.00  0.00    +0.133 C 
ATOM     17  C   UNL     1      -3.387   3.346 -22.637  0.00  0.00    +0.071 C 
ATOM     18  C   UNL     1      -0.886   3.122 -23.562  0.00  0.00    +0.016 A 
ATOM     19  C   UNL     1      -2.361   2.961 -20.704  0.00  0.00    +0.062 C 
ATOM     20  C   UNL     1      -2.075   3.236 -23.184  0.00  0.00    +0.074 C 
ATOM     21  C   UNL     1      -4.182   3.582 -23.634  0.00  0.00    +0.051 C 
ENDROOT
BRANCH   1  23
ATOM     22  C   UNL     1      -6.306   2.567 -21.697  0.00  0.00    +0.277 C 
ATOM     23  O   UNL     1      -5.655   3.581 -22.041  0.00  0.00    -0.495 OA
ENDBRANCH   1  23
BRANCH   6  24
ATOM     24  O   UNL     1       2.136   2.544 -22.267  0.00  0.00    -0.491 OA
ATOM     25  C   UNL     1       2.416   1.364 -21.952  0.00  0.00    +0.277 C 
ENDBRANCH   6  24
TORSDOF 2
ENDMDL
MODEL 3
REMARK VINA RESULT:   -10.308      1.748      5.236
REMARK INTER + INTRA:         -10.503
REMARK INTER:                 -11.519
REMARK INTRA:                   1.016
REMARK UNBOUND:                 1.011
REMARK  Name = COC1=C[C@]2(C)Oc3c(OC)ccc4c3[C@]23CCN(C)[C@H](C4)C3=C1               ZINC000100393714
REMARK  6 active torsions:
REMARK  status: ('A' for Active; 'I' for Inactive)
REMARK    1  A    between atoms: C_1  and  O_2
REMARK    2  A    between atoms: O_2  and  C_3
REMARK    3  A    between atoms: C_5  and  C_6
REMARK    4  A    between atoms: C_9  and  O_10
REMARK    5  A    between atoms: O_10  and  C_11
REMARK    6  A    between atoms: N_19  and  C_20
REMARK                            x       y       z     vdW  Elec       q    Type
REMARK                         _______ _______ _______ _____ _____    ______ ____
ROOT
ATOM      1  C   UNL     1       2.779   2.521 -23.955  0.00  0.00    +0.120 C 
ATOM      2  C   UNL     1       1.927   3.121 -24.676  0.00  0.00    +0.066 C 
ATOM      3  C   UNL     1       0.732   3.179 -24.309  0.00  0.00    +0.143 C 
ATOM      4  O   UNL     1      -0.667   3.667 -24.616  0.00  0.00    -0.477 OA
ATOM      5  C   UNL     1      -1.676   3.295 -23.565  0.00  0.00    +0.168 A 
ATOM      6  C   UNL     1      -2.887   3.354 -23.193  0.00  0.00    +0.162 A 
ATOM      7  C   UNL     1      -3.232   2.810 -22.101  0.00  0.00    +0.050 A 
ATOM      8  C   UNL     1      -2.387   2.218 -21.391  0.00  0.00    +0.008 A 
ATOM      9  C   UNL     1      -1.188   2.160 -21.761  0.00  0.00    -0.034 A 
ATOM     10  C   UNL     1      -0.326   1.559 -21.042  0.00  0.00    +0.094 C 
ATOM     11  C   UNL     1       0.869   1.502 -21.413  0.00  0.00    +0.097 C 
ATOM     12  C   UNL     1       1.218   2.044 -22.504  0.00  0.00    -0.003 C 
ATOM     13  N   UNL     1       2.253   1.380 -21.742  0.00  0.00    +0.239 N 
ATOM     14  H   UNL     1       2.915   0.889 -21.140  0.00  0.00    +0.204 HD
ATOM     15  C   UNL     1       3.054   0.775 -20.993  0.00  0.00    +0.191 C 
ATOM     16  C   UNL     1       2.675   1.973 -22.952  0.00  0.00    +0.133 C 
ATOM     17  C   UNL     1       1.699   2.635 -23.732  0.00  0.00    +0.071 C 
ATOM     18  C   UNL     1      -0.826   2.695 -22.845  0.00  0.00    +0.016 A 
ATOM     19  C   UNL     1       0.798   3.787 -25.404  0.00  0.00    +0.062 C 
ATOM     20  C   UNL     1       0.371   2.637 -23.213  0.00  0.00    +0.074 C 
ATOM     21  C   UNL     1       2.427   1.986 -22.877  0.00  0.00    +0.051 C 
ENDROOT
BRANCH   1  23
ATOM     22  C   UNL     1       4.863   3.050 -23.662  0.00  0.00    +0.277 C 
ATOM     23  O   UNL     1       3.975   2.461 -24.320  0.00  0.00    -0.495 OA
ENDBRANCH   1  23
BRANCH   6  24
ATOM     24  O   UNL     1      -3.736   3.946 -23.900  0.00  0.00    -0.491 OA
ATOM     25  C   UNL     1      -4.958   3.797 -23.670  0.00  0.00    +0.277 C 
ENDBRANCH   6  24
TORSDOF 2
ENDMDL
MODEL 4
REMARK VINA RESULT:    -9.715      1.512      3.101
REMARK INTER + INTRA:          -9.841
REMARK INTER:                 -10.852
REMARK INTRA:                   1.012
REMARK UNBOUND:                 1.011
REMARK  Name = COC1=C[C@]2(C)Oc3c(OC)ccc4c3[C@]23CCN(C)[C@H](C4)C3=C1               ZINC000100393714
REMARK  6 active torsions:
REMARK  status: ('A' for Active; 'I' for Inactive)
REMARK    1  A    between atoms: C_1  and  O_2
REMARK    2  A    between atoms: O_2  and  C_3
REMARK    3  A    between atoms: C_5  and  C_6
REMARK    4  A    between atoms: C_9  and  O_10
REMARK    5  A    between atoms: O_10  and  C_11
REMARK    6  A    between atoms: N_19  and  C_20
REMARK                            x       y       z     vdW  Elec       q    Type
REMARK                         _______ _______ _______ _____ _____    ______ ____
ROOT
ATOM      1  C   UNL     1      -2.851   2.660 -22.903  0.00  0.00    +0.120 C 
ATOM      2  C   UNL     1      -2.083   2.277 -21.971  0.00  0.00    +0.066 C 
ATOM      3  C   UNL     1      -0.844   2.263 -22.152  0.00  0.00    +0.143 C 
ATOM      4  O   UNL     1       0.520   1.966 -21.568  0.00  0.00    -0.477 OA
ATOM      5  C   UNL     1       1.651   2.236 -22.520  0.00  0.00    +0.168 A 
ATOM      6  C   UNL     1       2.907   2.222 -22.703  0.00  0.00    +0.162 A 
ATOM      7  C   UNL     1       3.379   2.593 -23.819  0.00  0.00    +0.050 A 
ATOM      8  C   UNL     1       2.616   2.972 -24.738  0.00  0.00    +0.008 A 
ATOM      9  C   UNL     1       1.374   2.985 -24.555  0.00  0.00    -0.034 A 
ATOM     10  C   UNL     1       0.594   3.370 -25.486  0.00  0.00    +0.094 C 
ATOM     11  C   UNL     1      -0.644   3.383 -25.303  0.00  0.00    +0.097 C 
ATOM     12  C   UNL     1      -1.120   3.012 -24.188  0.00  0.00    -0.003 C 
ATOM     13  N   UNL     1      -2.066   3.435 -25.197  0.00  0.00    +0.239 N 
ATOM     14  H   UNL     1      -2.659   3.750 -25.966  0.00  0.00    +0.204 HD
ATOM     15  C   UNL     1      -2.781   3.823 -26.149  0.00  0.00    +0.191 C 
ATOM     16  C   UNL     1      -2.630   3.029 -23.967  0.00  0.00    +0.133 C 
ATOM     17  C   UNL     1      -1.745   2.607 -22.949  0.00  0.00    +0.071 C 
ATOM     18  C   UNL     1       0.885   2.619 -23.450  0.00  0.00    +0.016 A 
ATOM     19  C   UNL     1      -1.038   1.854 -20.982  0.00  0.00    +0.062 C 
ATOM     20  C   UNL     1      -0.356   2.634 -23.270  0.00  0.00    +0.074 C 
ATOM     21  C   UNL     1      -2.373   3.026 -24.003  0.00  0.00    +0.051 C 
ENDROOT
BRANCH   1  23
ATOM     22  C   UNL     1      -4.590   3.428 -21.857  0.00  0.00    +0.277 C 
ATOM     23  O   UNL     1      -4.090   2.675 -22.725  0.00  0.00    -0.495 OA
ENDBRANCH   1  23
BRANCH   6  24
ATOM     24  O   UNL     1       3.673   1.844 -21.787  0.00  0.00    -0.491 OA
ATOM     25  C   UNL     1       3.792   0.623 -21.532  0.00  0.00    +0.277 C 
ENDBRANCH   6  24
TORSDOF 2
ENDMDL
MODEL 5
REMARK VINA RESULT:    -9.173      1.790      2.760
REMARK INTER + INTRA:          -9.235
REMARK INTER:                 -10.231
REMARK INTRA:                   0.996
REMARK UNBOUND:                 1.011
REMARK  Name = COC1=C[C@]2(C)Oc3c(OC)ccc4c3[C@]23CCN(C)[C@H](C4)C3=C1               ZINC000100393714
REMARK  6 active torsions:
REMARK  status: ('A' for Active; 'I' for Inactive)
REMARK    1  A    between atoms: C_1  and  O_2
REMARK    2  A    between atoms: O_2  and  C_3
REMARK    3  A    between atoms: C_5  and  C_6
REMARK    4  A    between atoms: C_9  and  O_10
REMARK    5  A    between atoms: O_10  and  C_11
REMARK    6  A    between atoms: N_19  and  C_20
REMARK                            x       y       z     vdW  Elec       q    Type
REMARK                         _______ _______ _______ _____ _____    ______ ____
ROOT
ATOM      1  C   UNL     1      -1.135   3.096 -24.270  0.00  0.00    +0.120 C 
ATOM      2  C   UNL     1      -0.154   3.492 -24.969  0.00  0.00    +0.066 C 
ATOM      3  C   UNL     1       1.015   3.309 -24.559  0.00  0.00    +0.143 C 
ATOM      4  O   UNL     1       2.493   3.489 -24.823  0.00  0.00    -0.477 OA
ATOM      5  C   UNL     1       3.368   2.938 -23.732  0.00  0.00    +0.168 A 
ATOM      6  C   UNL     1       4.553   2.752 -23.316  0.00  0.00    +0.162 A 
ATOM      7  C   UNL     1       4.742   2.172 -22.206  0.00  0.00    +0.050 A 
ATOM      8  C   UNL     1       3.769   1.782 -21.518  0.00  0.00    +0.008 A 
ATOM      9  C   UNL     1       2.597   1.967 -21.931  0.00  0.00    -0.034 A 
ATOM     10  C   UNL     1       1.605   1.573 -21.235  0.00  0.00    +0.094 C 
ATOM     11  C   UNL     1       0.437   1.757 -21.647  0.00  0.00    +0.097 C 
ATOM     12  C   UNL     1       0.245   2.337 -22.757  0.00  0.00    -0.003 C 
ATOM     13  N   UNL     1      -0.929   1.918 -22.024  0.00  0.00    +0.239 N 
ATOM     14  H   UNL     1      -1.698   1.588 -21.440  0.00  0.00    +0.204 HD
ATOM     15  C   UNL     1      -1.863   1.508 -21.297  0.00  0.00    +0.191 C 
ATOM     16  C   UNL     1      -1.180   2.560 -23.256  0.00  0.00    +0.133 C 
ATOM     17  C   UNL     1      -0.063   2.989 -24.010  0.00  0.00    +0.071 C 
ATOM     18  C   UNL     1       2.389   2.543 -23.034  0.00  0.00    +0.016 A 
ATOM     19  C   UNL     1       1.112   3.894 -25.664  0.00  0.00    +0.062 C 
ATOM     20  C   UNL     1       1.219   2.726 -23.444  0.00  0.00    +0.074 C 
ATOM     21  C   UNL     1      -0.937   2.523 -23.173  0.00  0.00    +0.051 C 
ENDROOT
BRANCH   1  23
ATOM     22  C   UNL     1      -3.051   4.100 -24.097  0.00  0.00    +0.277 C 
ATOM     23  O   UNL     1      -2.305   3.278 -24.678  0.00  0.00    -0.495 OA
ENDBRANCH   1  23
BRANCH   6  24
ATOM     24  O   UNL     1       5.528   3.140 -24.001  0.00  0.00    -0.491 OA
ATOM     25  C   UNL     1       6.557   3.578 -23.436  0.00  0.00    +0.277 C 
ENDBRANCH   6  24
TORSDOF 2
ENDMDL
MODEL 6
REMARK VINA RESULT:    -8.527      2.872      4.806
REMARK INTER + INTRA:          -8.514
REMARK INTER:                  -9.473
REMARK INTRA:                   0.959
REMARK UNBOUND:                 1.011
REMARK  Name = COC1=C[C@]2(C)Oc3c(OC)ccc4c3[C@]23CCN(C)[C@H](C4)C3=C1               ZINC000100393714
REMARK  6 active torsions:
REMARK  status: ('A' for Active; 'I' for Inactive)
REMARK    1  A    between atoms: C_1  and  O_2
REMARK    2  A    between atoms: O_2  and  C_3
REMARK    3  A    between atoms: C_5  and  C_6
REMARK    4  A    between atoms: C_9  and  O_10
REMARK    5  A    between atoms: O_10  and  C_11
REMARK    6  A    between atoms: N_19  and  C_20
REMARK                            x       y       z     vdW  Elec       q    Type
REMARK                         _______ _______ _______ _____ _____    ______ ____
ROOT
ATOM      1  C   UNL     1       0.367   2.028 -22.766  0.00  0.00    +0.120 C 
ATOM      2  C   UNL     1       1.409   1.318 -22.642  0.00  0.00    +0.066 C 
ATOM      3  C   UNL     1       2.537   1.860 -22.663  0.00  0.00    +0.143 C 
ATOM      4  O   UNL     1       4.036   1.672 -22.583  0.00  0.00    -0.477 OA
ATOM      5  C   UNL     1       4.808   2.955 -22.705  0.00  0.00    +0.168 A 
ATOM      6  C   UNL     1       5.952   3.505 -22.726  0.00  0.00    +0.162 A 
ATOM      7  C   UNL     1       6.039   4.761 -22.871  0.00  0.00    +0.050 A 
ATOM      8  C   UNL     1       5.006   5.460 -22.994  0.00  0.00    +0.008 A 
ATOM      9  C   UNL     1       3.875   4.914 -22.972  0.00  0.00    -0.034 A 
ATOM     10  C   UNL     1       2.822   5.621 -23.096  0.00  0.00    +0.094 C 
ATOM     11  C   UNL     1       1.695   5.076 -23.075  0.00  0.00    +0.097 C 
ATOM     12  C   UNL     1       1.605   3.820 -22.930  0.00  0.00    -0.003 C 
ATOM     13  N   UNL     1       0.366   4.555 -23.064  0.00  0.00    +0.239 N 
ATOM     14  H   UNL     1      -0.454   5.154 -23.166  0.00  0.00    +0.204 HD
ATOM     15  C   UNL     1      -0.631   5.302 -23.191  0.00  0.00    +0.191 C 
ATOM     16  C   UNL     1       0.229   3.159 -22.905  0.00  0.00    +0.133 C 
ATOM     17  C   UNL     1       1.412   2.396 -22.769  0.00  0.00    +0.071 C 
ATOM     18  C   UNL     1       3.768   3.665 -22.829  0.00  0.00    +0.016 A 
ATOM     19  C   UNL     1       2.735   0.631 -22.510  0.00  0.00    +0.062 C 
ATOM     20  C   UNL     1       2.638   3.122 -22.808  0.00  0.00    +0.074 C 
ATOM     21  C   UNL     1       0.463   3.270 -22.909  0.00  0.00    +0.051 C 
ENDROOT
BRANCH   1  23
ATOM     22  C   UNL     1      -1.337   1.274 -21.652  0.00  0.00    +0.277 C 
ATOM     23  O   UNL     1      -0.763   1.488 -22.745  0.00  0.00    -0.495 OA
ENDBRANCH   1  23
BRANCH   6  24
ATOM     24  O   UNL     1       6.987   2.810 -22.605  0.00  0.00    -0.491 OA
ATOM     25  C   UNL     1       7.879   2.852 -23.484  0.00  0.00    +0.277 C 
ENDBRANCH   6  24
TORSDOF 2
ENDMDL
MODEL 7
REMARK VINA RESULT:    -7.603      3.846      5.840
REMARK INTER + INTRA:          -7.481
REMARK INTER:                  -8.502
REMARK INTRA:                   1.020
REMARK UNBOUND:                 1.011
REMARK  Name = COC1=C[C@]2(C)Oc3c(OC)ccc4c3[C@]23CCN(C)[C@H](C4)C3=C1               ZINC000100393714
REMARK  6 active torsions:
REMARK  status: ('A' for Active; 'I' for Inactive)
REMARK    1  A    between atoms: C_1  and  O_2
REMARK    2  A    between atoms: O_2  and  C_3
REMARK    3  A    between atoms: C_5  and  C_6
REMARK    4  A    between atoms: C_9  and  O_10
REMARK    5  A    between atoms: O_10  and  C_11
REMARK    6  A    between atoms: N_19  and  C_20
REMARK                            x       y       z     vdW  Elec       q    Type
REMARK                         _______ _______ _______ _____ _____    ______ ____
ROOT
ATOM      1  C   UNL     1       1.296   3.221 -23.245  0.00  0.00    +0.120 C 
ATOM      2  C   UNL     1       1.693   4.425 -23.239  0.00  0.00    +0.066 C 
ATOM      3  C   UNL     1       2.904   4.679 -23.049  0.00  0.00    +0.143 C 
ATOM      4  O   UNL     1       3.972   5.743 -22.924  0.00  0.00    -0.477 OA
ATOM      5  C   UNL     1       5.345   5.188 -22.668  0.00  0.00    +0.168 A 
ATOM      6  C   UNL     1       6.573   5.445 -22.476  0.00  0.00    +0.162 A 
ATOM      7  C   UNL     1       7.389   4.494 -22.292  0.00  0.00    +0.050 A 
ATOM      8  C   UNL     1       6.993   3.305 -22.299  0.00  0.00    +0.008 A 
ATOM      9  C   UNL     1       5.777   3.052 -22.489  0.00  0.00    -0.034 A 
ATOM     10  C   UNL     1       5.370   1.845 -22.497  0.00  0.00    +0.094 C 
ATOM     11  C   UNL     1       4.158   1.594 -22.687  0.00  0.00    +0.097 C 
ATOM     12  C   UNL     1       3.338   2.543 -22.871  0.00  0.00    -0.003 C 
ATOM     13  N   UNL     1       2.802   1.200 -22.893  0.00  0.00    +0.239 N 
ATOM     14  H   UNL     1       2.512   0.221 -22.893  0.00  0.00    +0.204 HD
ATOM     15  C   UNL     1       2.461  -0.005 -22.890  0.00  0.00    +0.191 C 
ATOM     16  C   UNL     1       1.862   2.233 -23.101  0.00  0.00    +0.133 C 
ATOM     17  C   UNL     1       2.338   3.564 -23.088  0.00  0.00    +0.071 C 
ATOM     18  C   UNL     1       4.949   3.987 -22.674  0.00  0.00    +0.016 A 
ATOM     19  C   UNL     1       2.328   5.783 -23.200  0.00  0.00    +0.062 C 
ATOM     20  C   UNL     1       3.736   3.731 -22.863  0.00  0.00    +0.074 C 
ATOM     21  C   UNL     1       2.112   2.287 -23.062  0.00  0.00    +0.051 C 
ENDROOT
BRANCH   1  23
ATOM     22  C   UNL     1      -0.439   3.197 -24.548  0.00  0.00    +0.277 C 
ATOM     23  O   UNL     1       0.086   2.964 -23.434  0.00  0.00    -0.495 OA
ENDBRANCH   1  23
BRANCH   6  24
ATOM     24  O   UNL     1       6.974   6.633 -22.468  0.00  0.00    -0.491 OA
ATOM     25  C   UNL     1       7.784   7.016 -21.594  0.00  0.00    +0.277 C 
ENDBRANCH   6  24
TORSDOF 2
ENDMDL
