MODEL 1
REMARK VINA RESULT:   -10.700      0.000      0.000
REMARK INTER + INTRA:         -11.013
REMARK INTER:                 -11.013
REMARK INTRA:                   0.000
REMARK UNBOUND:                 0.000
REMARK  Name = C=C1C(=O)O[C@@H]2C=C(C)[C@H](O)CC=C(C)CC[C@H]12                      ZINC001081701744
REMARK  3 active torsions:
REMARK  status: ('A' for Active; 'I' for Inactive)
REMARK    1  A    between atoms: C_8  and  C_9
REMARK    2  A    between atoms: C_10  and  O_11
REMARK    3  A    between atoms: C_14  and  C_15
REMARK                            x       y       z     vdW  Elec       q    Type
REMARK                         _______ _______ _______ _____ _____    ______ ____
ROOT
ATOM      1  C   UNL     1       0.549   1.508 -21.129  0.00  0.00    +0.020 C 
ATOM      2  C   UNL     1      -0.154   1.962 -22.124  0.00  0.00    +0.036 C 
ATOM      3  C   UNL     1       0.271   2.144 -23.339  0.00  0.00    +0.336 C 
ATOM      4  O   UNL     1      -0.719   2.608 -24.043  0.00  0.00    -0.453 OA
ATOM      5  C   UNL     1      -1.754   2.712 -23.265  0.00  0.00    +0.207 C 
ATOM      6  C   UNL     1      -2.969   3.119 -23.482  0.00  0.00    +0.019 C 
ATOM      7  C   UNL     1      -3.317   3.518 -24.669  0.00  0.00    -0.045 C 
ATOM      8  C   UNL     1      -4.532   3.926 -24.889  0.00  0.00    +0.144 C 
ATOM      9  C   UNL     1      -5.399   3.934 -23.920  0.00  0.00    +0.063 C 
ATOM     10  C   UNL     1      -5.052   3.535 -22.733  0.00  0.00    -0.025 C 
ATOM     11  C   UNL     1      -3.836   3.128 -22.515  0.00  0.00    -0.076 C 
ATOM     12  C   UNL     1      -3.488   2.728 -21.328  0.00  0.00    +0.031 C 
ATOM     13  C   UNL     1      -2.272   2.321 -21.110  0.00  0.00    +0.016 C 
ATOM     14  C   UNL     1      -4.703   3.135 -21.546  0.00  0.00    +0.039 C 
ATOM     15  C   UNL     1      -2.449   3.510 -25.638  0.00  0.00    +0.041 C 
ATOM     16  O   UNL     1       1.472   1.905 -23.772  0.00  0.00    -0.245 OA
ATOM     17  C   UNL     1      -1.405   2.313 -22.078  0.00  0.00    +0.070 C 
ENDROOT
BRANCH   8  18
ATOM     18  O   UNL     1      -4.881   4.325 -26.076  0.00  0.00    -0.387 OA
ATOM     19  H   UNL     1      -4.164   4.849 -26.465  0.00  0.00    +0.210 HD
ENDBRANCH   8  18
TORSDOF 1
ENDMDL
MODEL 2
REMARK VINA RESULT:   -10.378      1.651      2.839
REMARK INTER + INTRA:         -10.681
REMARK INTER:                 -10.681
REMARK INTRA:                   0.000
REMARK UNBOUND:                 0.000
REMARK  Name = C=C1C(=O)O[C@@H]2C=C(C)[C@H](O)CC=C(C)CC[C@H]12                      ZINC001081701744
REMARK  3 active torsions:
REMARK  status: ('A' for Active; 'I' for Inactive)
REMARK    1  A    between atoms: C_8  and  C_9
REMARK    2  A    between atoms: C_10  and  O_11
REMARK    3  A    between atoms: C_14  and  C_15
REMARK                            x       y       z     vdW  Elec       q    Type
REMARK                         _______ _______ _______ _____ _____    ______ ____
ROOT
ATOM      1  C   UNL     1       1.353   2.244 -23.167  0.00  0.00    +0.020 C 
ATOM      2  C   UNL     1       0.137   2.303 -22.707  0.00  0.00    +0.036 C 
ATOM      3  C   UNL     1      -0.258   1.890 -21.541  0.00  0.00    +0.336 C 
ATOM      4  O   UNL     1      -1.535   2.118 -21.448  0.00  0.00    -0.453 OA
ATOM      5  C   UNL     1      -1.928   2.671 -22.556  0.00  0.00    +0.207 C 
ATOM      6  C   UNL     1      -3.092   3.086 -22.957  0.00  0.00    +0.019 C 
ATOM      7  C   UNL     1      -4.127   2.971 -22.177  0.00  0.00    -0.045 C 
ATOM      8  C   UNL     1      -5.292   3.385 -22.576  0.00  0.00    +0.144 C 
ATOM      9  C   UNL     1      -5.424   3.915 -23.756  0.00  0.00    +0.063 C 
ATOM     10  C   UNL     1      -4.391   4.030 -24.536  0.00  0.00    -0.025 C 
ATOM     11  C   UNL     1      -3.226   3.615 -24.136  0.00  0.00    -0.076 C 
ATOM     12  C   UNL     1      -2.192   3.730 -24.915  0.00  0.00    +0.031 C 
ATOM     13  C   UNL     1      -1.026   3.315 -24.514  0.00  0.00    +0.016 C 
ATOM     14  C   UNL     1      -3.356   4.145 -25.316  0.00  0.00    +0.039 C 
ATOM     15  C   UNL     1      -3.994   2.441 -20.996  0.00  0.00    +0.041 C 
ATOM     16  O   UNL     1       0.489   1.345 -20.629  0.00  0.00    -0.245 OA
ATOM     17  C   UNL     1      -0.894   2.786 -23.335  0.00  0.00    +0.070 C 
ENDROOT
BRANCH   8  18
ATOM     18  O   UNL     1      -6.326   3.270 -21.797  0.00  0.00    -0.387 OA
ATOM     19  H   UNL     1      -7.122   3.133 -22.333  0.00  0.00    +0.210 HD
ENDBRANCH   8  18
TORSDOF 1
ENDMDL
MODEL 3
REMARK VINA RESULT:    -9.709      1.337      4.436
REMARK INTER + INTRA:          -9.993
REMARK INTER:                  -9.993
REMARK INTRA:                   0.000
REMARK UNBOUND:                 0.000
REMARK  Name = C=C1C(=O)O[C@@H]2C=C(C)[C@H](O)CC=C(C)CC[C@H]12                      ZINC001081701744
REMARK  3 active torsions:
REMARK  status: ('A' for Active; 'I' for Inactive)
REMARK    1  A    between atoms: C_8  and  C_9
REMARK    2  A    between atoms: C_10  and  O_11
REMARK    3  A    between atoms: C_14  and  C_15
REMARK                            x       y       z     vdW  Elec       q    Type
REMARK                         _______ _______ _______ _____ _____    ______ ____
ROOT
ATOM      1  C   UNL     1      -5.164   2.985 -21.451  0.00  0.00    +0.020 C 
ATOM      2  C   UNL     1      -4.247   3.132 -22.362  0.00  0.00    +0.036 C 
ATOM      3  C   UNL     1      -4.420   3.646 -23.543  0.00  0.00    +0.336 C 
ATOM      4  O   UNL     1      -3.276   3.622 -24.161  0.00  0.00    -0.453 OA
ATOM      5  C   UNL     1      -2.397   3.093 -23.363  0.00  0.00    +0.207 C 
ATOM      6  C   UNL     1      -1.129   2.847 -23.504  0.00  0.00    +0.019 C 
ATOM      7  C   UNL     1      -0.529   3.150 -24.617  0.00  0.00    -0.045 C 
ATOM      8  C   UNL     1       0.739   2.906 -24.760  0.00  0.00    +0.144 C 
ATOM      9  C   UNL     1       1.408   2.357 -23.790  0.00  0.00    +0.063 C 
ATOM     10  C   UNL     1       0.810   2.054 -22.678  0.00  0.00    -0.025 C 
ATOM     11  C   UNL     1      -0.459   2.299 -22.535  0.00  0.00    -0.076 C 
ATOM     12  C   UNL     1      -1.059   1.996 -21.423  0.00  0.00    +0.031 C 
ATOM     13  C   UNL     1      -2.329   2.241 -21.281  0.00  0.00    +0.016 C 
ATOM     14  C   UNL     1       0.209   1.751 -21.564  0.00  0.00    +0.039 C 
ATOM     15  C   UNL     1      -1.199   3.700 -25.588  0.00  0.00    +0.041 C 
ATOM     16  O   UNL     1      -5.537   4.104 -24.021  0.00  0.00    -0.245 OA
ATOM     17  C   UNL     1      -2.998   2.789 -22.250  0.00  0.00    +0.070 C 
ENDROOT
BRANCH   8  18
ATOM     18  O   UNL     1       1.339   3.209 -25.873  0.00  0.00    -0.387 OA
ATOM     19  H   UNL     1       2.236   3.524 -25.682  0.00  0.00    +0.210 HD
ENDBRANCH   8  18
TORSDOF 1
ENDMDL
MODEL 4
REMARK VINA RESULT:    -9.608      1.248      4.620
REMARK INTER + INTRA:          -9.889
REMARK INTER:                  -9.889
REMARK INTRA:                   0.000
REMARK UNBOUND:                 0.000
REMARK  Name = C=C1C(=O)O[C@@H]2C=C(C)[C@H](O)CC=C(C)CC[C@H]12                      ZINC001081701744
REMARK  3 active torsions:
REMARK  status: ('A' for Active; 'I' for Inactive)
REMARK    1  A    between atoms: C_8  and  C_9
REMARK    2  A    between atoms: C_10  and  O_11
REMARK    3  A    between atoms: C_14  and  C_15
REMARK                            x       y       z     vdW  Elec       q    Type
REMARK                         _______ _______ _______ _____ _____    ______ ____
ROOT
ATOM      1  C   UNL     1      -5.208   3.732 -23.031  0.00  0.00    +0.020 C 
ATOM      2  C   UNL     1      -4.008   3.711 -23.533  0.00  0.00    +0.036 C 
ATOM      3  C   UNL     1      -3.644   4.241 -24.662  0.00  0.00    +0.336 C 
ATOM      4  O   UNL     1      -2.373   4.013 -24.819  0.00  0.00    -0.453 OA
ATOM      5  C   UNL     1      -1.953   3.342 -23.788  0.00  0.00    +0.207 C 
ATOM      6  C   UNL     1      -0.782   2.878 -23.470  0.00  0.00    +0.019 C 
ATOM      7  C   UNL     1       0.229   3.065 -24.266  0.00  0.00    -0.045 C 
ATOM      8  C   UNL     1       1.401   2.602 -23.950  0.00  0.00    +0.144 C 
ATOM      9  C   UNL     1       1.563   1.950 -22.836  0.00  0.00    +0.063 C 
ATOM     10  C   UNL     1       0.554   1.763 -22.040  0.00  0.00    -0.025 C 
ATOM     11  C   UNL     1      -0.618   2.227 -22.358  0.00  0.00    -0.076 C 
ATOM     12  C   UNL     1      -1.629   2.040 -21.562  0.00  0.00    +0.031 C 
ATOM     13  C   UNL     1      -2.802   2.504 -21.880  0.00  0.00    +0.016 C 
ATOM     14  C   UNL     1      -0.458   1.575 -21.244  0.00  0.00    +0.039 C 
ATOM     15  C   UNL     1       0.067   3.717 -25.380  0.00  0.00    +0.041 C 
ATOM     16  O   UNL     1      -4.413   4.884 -25.487  0.00  0.00    -0.245 OA
ATOM     17  C   UNL     1      -2.964   3.155 -22.992  0.00  0.00    +0.070 C 
ENDROOT
BRANCH   8  18
ATOM     18  O   UNL     1       2.412   2.789 -24.746  0.00  0.00    -0.387 OA
ATOM     19  H   UNL     1       3.020   2.036 -24.680  0.00  0.00    +0.210 HD
ENDBRANCH   8  18
TORSDOF 1
ENDMDL
MODEL 5
REMARK VINA RESULT:    -9.258      1.836      5.211
REMARK INTER + INTRA:          -9.529
REMARK INTER:                  -9.529
REMARK INTRA:                   0.000
REMARK UNBOUND:                 0.000
REMARK  Name = C=C1C(=O)O[C@@H]2C=C(C)[C@H](O)CC=C(C)CC[C@H]12                      ZINC001081701744
REMARK  3 active torsions:
REMARK  status: ('A' for Active; 'I' for Inactive)
REMARK    1  A    between atoms: C_8  and  C_9
REMARK    2  A    between atoms: C_10  and  O_11
REMARK    3  A    between atoms: C_14  and  C_15
REMARK                            x       y       z     vdW  Elec       q    Type
REMARK                         _______ _______ _______ _____ _____    ______ ____
ROOT
ATOM      1  C   UNL     1      -5.173   3.733 -23.266  0.00  0.00    +0.020 C 
ATOM      2  C   UNL     1      -4.051   3.234 -22.837  0.00  0.00    +0.036 C 
ATOM      3  C   UNL     1      -3.880   2.586 -21.724  0.00  0.00    +0.336 C 
ATOM      4  O   UNL     1      -2.627   2.248 -21.647  0.00  0.00    -0.453 OA
ATOM      5  C   UNL     1      -2.024   2.687 -22.711  0.00  0.00    +0.207 C 
ATOM      6  C   UNL     1      -0.788   2.610 -23.105  0.00  0.00    +0.019 C 
ATOM      7  C   UNL     1       0.092   2.000 -22.369  0.00  0.00    -0.045 C 
ATOM      8  C   UNL     1       1.328   1.923 -22.761  0.00  0.00    +0.144 C 
ATOM      9  C   UNL     1       1.685   2.456 -23.893  0.00  0.00    +0.063 C 
ATOM     10  C   UNL     1       0.806   3.066 -24.629  0.00  0.00    -0.025 C 
ATOM     11  C   UNL     1      -0.430   3.143 -24.235  0.00  0.00    -0.076 C 
ATOM     12  C   UNL     1      -1.311   3.753 -24.972  0.00  0.00    +0.031 C 
ATOM     13  C   UNL     1      -2.548   3.829 -24.577  0.00  0.00    +0.016 C 
ATOM     14  C   UNL     1      -0.075   3.676 -25.366  0.00  0.00    +0.039 C 
ATOM     15  C   UNL     1      -0.265   1.467 -21.237  0.00  0.00    +0.041 C 
ATOM     16  O   UNL     1      -4.799   2.322 -20.844  0.00  0.00    -0.245 OA
ATOM     17  C   UNL     1      -2.905   3.297 -23.448  0.00  0.00    +0.070 C 
ENDROOT
BRANCH   8  18
ATOM     18  O   UNL     1       2.209   1.313 -22.025  0.00  0.00    -0.387 OA
ATOM     19  H   UNL     1       1.790   1.007 -21.205  0.00  0.00    +0.210 HD
ENDBRANCH   8  18
TORSDOF 1
ENDMDL
MODEL 6
REMARK VINA RESULT:    -8.881      1.221      1.868
REMARK INTER + INTRA:          -9.141
REMARK INTER:                  -9.141
REMARK INTRA:                   0.000
REMARK UNBOUND:                 0.000
REMARK  Name = C=C1C(=O)O[C@@H]2C=C(C)[C@H](O)CC=C(C)CC[C@H]12                      ZINC001081701744
REMARK  3 active torsions:
REMARK  status: ('A' for Active; 'I' for Inactive)
REMARK    1  A    between atoms: C_8  and  C_9
REMARK    2  A    between atoms: C_10  and  O_11
REMARK    3  A    between atoms: C_14  and  C_15
REMARK                            x       y       z     vdW  Elec       q    Type
REMARK                         _______ _______ _______ _____ _____    ______ ____
ROOT
ATOM      1  C   UNL     1       2.634   1.188 -21.811  0.00  0.00    +0.020 C 
ATOM      2  C   UNL     1       1.794   1.758 -22.624  0.00  0.00    +0.036 C 
ATOM      3  C   UNL     1       2.070   2.216 -23.809  0.00  0.00    +0.336 C 
ATOM      4  O   UNL     1       0.978   2.710 -24.311  0.00  0.00    -0.453 OA
ATOM      5  C   UNL     1       0.027   2.557 -23.438  0.00  0.00    +0.207 C 
ATOM      6  C   UNL     1      -1.232   2.878 -23.457  0.00  0.00    +0.019 C 
ATOM      7  C   UNL     1      -1.737   3.467 -24.500  0.00  0.00    -0.045 C 
ATOM      8  C   UNL     1      -2.996   3.788 -24.522  0.00  0.00    +0.144 C 
ATOM      9  C   UNL     1      -3.751   3.520 -23.498  0.00  0.00    +0.063 C 
ATOM     10  C   UNL     1      -3.248   2.932 -22.455  0.00  0.00    -0.025 C 
ATOM     11  C   UNL     1      -1.988   2.611 -22.435  0.00  0.00    -0.076 C 
ATOM     12  C   UNL     1      -1.484   2.022 -21.391  0.00  0.00    +0.031 C 
ATOM     13  C   UNL     1      -0.223   1.701 -21.372  0.00  0.00    +0.016 C 
ATOM     14  C   UNL     1      -2.743   2.343 -21.411  0.00  0.00    +0.039 C 
ATOM     15  C   UNL     1      -0.980   3.734 -25.525  0.00  0.00    +0.041 C 
ATOM     16  O   UNL     1       3.233   2.186 -24.388  0.00  0.00    -0.245 OA
ATOM     17  C   UNL     1       0.532   1.969 -22.394  0.00  0.00    +0.070 C 
ENDROOT
BRANCH   8  18
ATOM     18  O   UNL     1      -3.500   4.377 -25.565  0.00  0.00    -0.387 OA
ATOM     19  H   UNL     1      -3.015   5.197 -25.740  0.00  0.00    +0.210 HD
ENDBRANCH   8  18
TORSDOF 1
ENDMDL
MODEL 7
REMARK VINA RESULT:    -8.687      2.494      4.258
REMARK INTER + INTRA:          -8.941
REMARK INTER:                  -8.941
REMARK INTRA:                   0.000
REMARK UNBOUND:                 0.000
REMARK  Name = C=C1C(=O)O[C@@H]2C=C(C)[C@H](O)CC=C(C)CC[C@H]12                      ZINC001081701744
REMARK  3 active torsions:
REMARK  status: ('A' for Active; 'I' for Inactive)
REMARK    1  A    between atoms: C_8  and  C_9
REMARK    2  A    between atoms: C_10  and  O_11
REMARK    3  A    between atoms: C_14  and  C_15
REMARK                            x       y       z     vdW  Elec       q    Type
REMARK                         _______ _______ _______ _____ _____    ______ ____
ROOT
ATOM      1  C   UNL     1       4.627   3.029 -23.377  0.00  0.00    +0.020 C 
ATOM      2  C   UNL     1       3.463   2.636 -22.952  0.00  0.00    +0.036 C 
ATOM      3  C   UNL     1       3.215   1.530 -22.316  0.00  0.00    +0.336 C 
ATOM      4  O   UNL     1       1.941   1.493 -22.059  0.00  0.00    -0.453 OA
ATOM      5  C   UNL     1       1.402   2.576 -22.536  0.00  0.00    +0.207 C 
ATOM      6  C   UNL     1       0.177   3.009 -22.538  0.00  0.00    +0.019 C 
ATOM      7  C   UNL     1      -0.764   2.302 -21.986  0.00  0.00    -0.045 C 
ATOM      8  C   UNL     1      -1.990   2.734 -21.988  0.00  0.00    +0.144 C 
ATOM      9  C   UNL     1      -2.275   3.874 -22.543  0.00  0.00    +0.063 C 
ATOM     10  C   UNL     1      -1.336   4.582 -23.095  0.00  0.00    -0.025 C 
ATOM     11  C   UNL     1      -0.110   4.149 -23.092  0.00  0.00    -0.076 C 
ATOM     12  C   UNL     1       0.830   4.856 -23.644  0.00  0.00    +0.031 C 
ATOM     13  C   UNL     1       2.057   4.422 -23.642  0.00  0.00    +0.016 C 
ATOM     14  C   UNL     1      -0.395   5.290 -23.647  0.00  0.00    +0.039 C 
ATOM     15  C   UNL     1      -0.478   1.160 -21.431  0.00  0.00    +0.041 C 
ATOM     16  O   UNL     1       4.086   0.622 -21.994  0.00  0.00    -0.245 OA
ATOM     17  C   UNL     1       2.342   3.283 -23.088  0.00  0.00    +0.070 C 
ENDROOT
BRANCH   8  18
ATOM     18  O   UNL     1      -2.931   2.026 -21.436  0.00  0.00    -0.387 OA
ATOM     19  H   UNL     1      -3.617   2.616 -21.087  0.00  0.00    +0.210 HD
ENDBRANCH   8  18
TORSDOF 1
ENDMDL
MODEL 8
REMARK VINA RESULT:    -8.569      3.662      7.306
REMARK INTER + INTRA:          -8.820
REMARK INTER:                  -8.820
REMARK INTRA:                   0.000
REMARK UNBOUND:                 0.000
REMARK  Name = C=C1C(=O)O[C@@H]2C=C(C)[C@H](O)CC=C(C)CC[C@H]12                      ZINC001081701744
REMARK  3 active torsions:
REMARK  status: ('A' for Active; 'I' for Inactive)
REMARK    1  A    between atoms: C_8  and  C_9
REMARK    2  A    between atoms: C_10  and  O_11
REMARK    3  A    between atoms: C_14  and  C_15
REMARK                            x       y       z     vdW  Elec       q    Type
REMARK                         _______ _______ _______ _____ _____    ______ ____
ROOT
ATOM      1  C   UNL     1      -0.658   4.557 -23.716  0.00  0.00    +0.020 C 
ATOM      2  C   UNL     1       0.265   3.673 -23.477  0.00  0.00    +0.036 C 
ATOM      3  C   UNL     1       0.083   2.391 -23.358  0.00  0.00    +0.336 C 
ATOM      4  O   UNL     1       1.238   1.843 -23.123  0.00  0.00    -0.453 OA
ATOM      5  C   UNL     1       2.134   2.784 -23.097  0.00  0.00    +0.207 C 
ATOM      6  C   UNL     1       3.418   2.759 -22.903  0.00  0.00    +0.019 C 
ATOM      7  C   UNL     1       4.020   1.627 -22.684  0.00  0.00    -0.045 C 
ATOM      8  C   UNL     1       5.304   1.599 -22.489  0.00  0.00    +0.144 C 
ATOM      9  C   UNL     1       5.989   2.704 -22.513  0.00  0.00    +0.063 C 
ATOM     10  C   UNL     1       5.389   3.835 -22.732  0.00  0.00    -0.025 C 
ATOM     11  C   UNL     1       4.104   3.862 -22.927  0.00  0.00    -0.076 C 
ATOM     12  C   UNL     1       3.503   4.994 -23.146  0.00  0.00    +0.031 C 
ATOM     13  C   UNL     1       2.217   5.020 -23.340  0.00  0.00    +0.016 C 
ATOM     14  C   UNL     1       4.787   4.968 -22.951  0.00  0.00    +0.039 C 
ATOM     15  C   UNL     1       3.334   0.521 -22.659  0.00  0.00    +0.041 C 
ATOM     16  O   UNL     1      -1.053   1.769 -23.456  0.00  0.00    -0.245 OA
ATOM     17  C   UNL     1       1.533   3.916 -23.316  0.00  0.00    +0.070 C 
ENDROOT
BRANCH   8  18
ATOM     18  O   UNL     1       5.905   0.467 -22.270  0.00  0.00    -0.387 OA
ATOM     19  H   UNL     1       6.058   0.360 -21.318  0.00  0.00    +0.210 HD
ENDBRANCH   8  18
TORSDOF 1
ENDMDL
MODEL 9
REMARK VINA RESULT:    -8.112      2.317      6.392
REMARK INTER + INTRA:          -8.349
REMARK INTER:                  -8.349
REMARK INTRA:                   0.000
REMARK UNBOUND:                 0.000
REMARK  Name = C=C1C(=O)O[C@@H]2C=C(C)[C@H](O)CC=C(C)CC[C@H]12                      ZINC001081701744
REMARK  3 active torsions:
REMARK  status: ('A' for Active; 'I' for Inactive)
REMARK    1  A    between atoms: C_8  and  C_9
REMARK    2  A    between atoms: C_10  and  O_11
REMARK    3  A    between atoms: C_14  and  C_15
REMARK                            x       y       z     vdW  Elec       q    Type
REMARK                         _______ _______ _______ _____ _____    ______ ____
ROOT
ATOM      1  C   UNL     1      -1.936   3.869 -24.855  0.00  0.00    +0.020 C 
ATOM      2  C   UNL     1      -1.248   3.328 -23.893  0.00  0.00    +0.036 C 
ATOM      3  C   UNL     1      -1.659   3.135 -22.675  0.00  0.00    +0.336 C 
ATOM      4  O   UNL     1      -0.692   2.573 -22.012  0.00  0.00    -0.453 OA
ATOM      5  C   UNL     1       0.315   2.418 -22.819  0.00  0.00    +0.207 C 
ATOM      6  C   UNL     1       1.500   1.913 -22.645  0.00  0.00    +0.019 C 
ATOM      7  C   UNL     1       1.843   1.447 -21.481  0.00  0.00    -0.045 C 
ATOM      8  C   UNL     1       3.027   0.941 -21.306  0.00  0.00    +0.144 C 
ATOM      9  C   UNL     1       3.870   0.903 -22.296  0.00  0.00    +0.063 C 
ATOM     10  C   UNL     1       3.528   1.369 -23.459  0.00  0.00    -0.025 C 
ATOM     11  C   UNL     1       2.343   1.874 -23.633  0.00  0.00    -0.076 C 
ATOM     12  C   UNL     1       1.999   2.341 -24.797  0.00  0.00    +0.031 C 
ATOM     13  C   UNL     1       0.813   2.846 -24.971  0.00  0.00    +0.016 C 
ATOM     14  C   UNL     1       3.184   1.836 -24.623  0.00  0.00    +0.039 C 
ATOM     15  C   UNL     1       0.999   1.486 -20.491  0.00  0.00    +0.041 C 
ATOM     16  O   UNL     1      -2.828   3.448 -22.205  0.00  0.00    -0.245 OA
ATOM     17  C   UNL     1      -0.028   2.885 -23.982  0.00  0.00    +0.070 C 
ENDROOT
BRANCH   8  18
ATOM     18  O   UNL     1       3.371   0.475 -20.142  0.00  0.00    -0.387 OA
ATOM     19  H   UNL     1       2.799   0.856 -19.458  0.00  0.00    +0.210 HD
ENDBRANCH   8  18
TORSDOF 1
ENDMDL
