MODEL 1
REMARK VINA RESULT:   -10.946      0.000      0.000
REMARK INTER + INTRA:         -11.738
REMARK INTER:                 -11.617
REMARK INTRA:                  -0.121
REMARK UNBOUND:                -0.152
REMARK  Name = COc1cc(Br)c2c3c1O[C@H]1C4(CC[C@@H]5[C@H](C2)N(C)CC[C@@]351)OCCO4     ZINC000100392459
REMARK  3 active torsions:
REMARK  status: ('A' for Active; 'I' for Inactive)
REMARK    1  A    between atoms: C_1  and  O_2
REMARK    2  A    between atoms: O_2  and  C_3
REMARK    3  A    between atoms: N_18  and  C_19
REMARK                            x       y       z     vdW  Elec       q    Type
REMARK                         _______ _______ _______ _____ _____    ______ ____
ROOT
ATOM      1  C   UNL     1       1.137   1.848 -21.945  0.00  0.00    +0.163 A 
ATOM      2  C   UNL     1       1.922   2.019 -22.930  0.00  0.00    +0.065 A 
ATOM      3  C   UNL     1       1.486   2.447 -24.027  0.00  0.00    +0.025 A 
ATOM      4  C   UNL     1       0.262   2.709 -24.154  0.00  0.00    -0.021 A 
ATOM      5  C   UNL     1      -0.540   2.547 -23.188  0.00  0.00    +0.013 A 
ATOM      6  C   UNL     1      -1.762   2.809 -23.316  0.00  0.00    +0.054 C 
ATOM      7  C   UNL     1      -3.169   3.074 -23.347  0.00  0.00    +0.067 C 
ATOM      8  C   UNL     1      -3.691   3.559 -24.574  0.00  0.00    +0.132 C 
ATOM      9  N   UNL     1      -2.783   3.736 -25.649  0.00  0.00    +0.236 N 
ATOM     10  H   UNL     1      -3.096   4.081 -26.556  0.00  0.00    +0.203 HD
ATOM     11  C   UNL     1      -3.165   4.162 -26.769  0.00  0.00    +0.190 C 
ATOM     12  C   UNL     1      -1.412   3.408 -25.398  0.00  0.00    +0.073 C 
ATOM     13  C   UNL     1      -2.199   3.239 -24.417  0.00  0.00    +0.053 C 
ATOM     14  C   UNL     1      -3.437   3.504 -24.545  0.00  0.00    +0.015 C 
ATOM     15  C   UNL     1      -4.223   3.338 -23.577  0.00  0.00    +0.069 C 
ATOM     16  C   UNL     1      -3.786   2.906 -22.464  0.00  0.00    +0.208 C 
ATOM     17  O   UNL     1      -3.464   2.485 -21.325  0.00  0.00    -0.343 OA
ATOM     18  C   UNL     1      -4.501   2.447 -20.615  0.00  0.00    +0.191 C 
ATOM     19  C   UNL     1      -5.465   2.845 -21.318  0.00  0.00    +0.191 C 
ATOM     20  O   UNL     1      -5.024   3.129 -22.460  0.00  0.00    -0.343 OA
ATOM     21  C   UNL     1      -2.565   2.643 -22.336  0.00  0.00    +0.244 C 
ATOM     22  O   UNL     1      -1.457   2.151 -21.417  0.00  0.00    -0.479 OA
ATOM     23  C   UNL     1      -0.189   3.146 -25.271  0.00  0.00    +0.091 C 
ATOM     24 BR   UNL     1       2.269   2.613 -24.995  0.00  0.00    -0.050 Br
ATOM     25  C   UNL     1      -0.101   2.115 -22.077  0.00  0.00    +0.167 A 
ENDROOT
BRANCH   1  27
ATOM     26  C   UNL     1       2.819   1.398 -20.635  0.00  0.00    +0.277 C 
ATOM     27  O   UNL     1       1.579   1.420 -20.849  0.00  0.00    -0.491 OA
ENDBRANCH   1  27
TORSDOF 1
ENDMDL
MODEL 2
REMARK VINA RESULT:   -10.353      2.087      3.486
REMARK INTER + INTRA:         -11.111
REMARK INTER:                 -10.990
REMARK INTRA:                  -0.121
REMARK UNBOUND:                -0.152
REMARK  Name = COc1cc(Br)c2c3c1O[C@H]1C4(CC[C@@H]5[C@H](C2)N(C)CC[C@@]351)OCCO4     ZINC000100392459
REMARK  3 active torsions:
REMARK  status: ('A' for Active; 'I' for Inactive)
REMARK    1  A    between atoms: C_1  and  O_2
REMARK    2  A    between atoms: O_2  and  C_3
REMARK    3  A    between atoms: N_18  and  C_19
REMARK                            x       y       z     vdW  Elec       q    Type
REMARK                         _______ _______ _______ _____ _____    ______ ____
ROOT
ATOM      1  C   UNL     1       1.753   2.170 -23.763  0.00  0.00    +0.163 A 
ATOM      2  C   UNL     1       2.049   1.855 -22.568  0.00  0.00    +0.065 A 
ATOM      3  C   UNL     1       1.164   1.826 -21.677  0.00  0.00    +0.025 A 
ATOM      4  C   UNL     1      -0.026   2.111 -21.969  0.00  0.00    -0.021 A 
ATOM      5  C   UNL     1      -0.346   2.428 -23.152  0.00  0.00    +0.013 A 
ATOM      6  C   UNL     1      -1.535   2.712 -23.443  0.00  0.00    +0.054 C 
ATOM      7  C   UNL     1      -2.853   3.054 -23.887  0.00  0.00    +0.067 C 
ATOM      8  C   UNL     1      -3.875   3.030 -22.902  0.00  0.00    +0.132 C 
ATOM      9  N   UNL     1      -3.504   2.674 -21.581  0.00  0.00    +0.236 N 
ATOM     10  H   UNL     1      -4.192   2.638 -20.828  0.00  0.00    +0.203 HD
ATOM     11  C   UNL     1      -4.349   2.628 -20.650  0.00  0.00    +0.190 C 
ATOM     12  C   UNL     1      -2.124   2.368 -21.357  0.00  0.00    +0.073 C 
ATOM     13  C   UNL     1      -2.423   2.683 -22.549  0.00  0.00    +0.053 C 
ATOM     14  C   UNL     1      -3.626   2.971 -22.845  0.00  0.00    +0.015 C 
ATOM     15  C   UNL     1      -3.930   3.285 -24.024  0.00  0.00    +0.069 C 
ATOM     16  C   UNL     1      -3.038   3.315 -24.929  0.00  0.00    +0.208 C 
ATOM     17  O   UNL     1      -2.239   3.377 -25.897  0.00  0.00    -0.343 OA
ATOM     18  C   UNL     1      -2.890   3.720 -26.917  0.00  0.00    +0.191 C 
ATOM     19  C   UNL     1      -4.091   3.870 -26.578  0.00  0.00    +0.191 C 
ATOM     20  O   UNL     1      -4.183   3.620 -25.350  0.00  0.00    -0.343 OA
ATOM     21  C   UNL     1      -1.849   3.031 -24.639  0.00  0.00    +0.244 C 
ATOM     22  O   UNL     1      -0.420   2.873 -25.135  0.00  0.00    -0.479 OA
ATOM     23  C   UNL     1      -0.934   2.083 -21.065  0.00  0.00    +0.091 C 
ATOM     24 BR   UNL     1       1.465   1.513 -20.499  0.00  0.00    -0.050 Br
ATOM     25  C   UNL     1       0.547   2.458 -24.055  0.00  0.00    +0.167 A 
ENDROOT
BRANCH   1  27
ATOM     26  C   UNL     1       3.826   1.878 -24.365  0.00  0.00    +0.277 C 
ATOM     27  O   UNL     1       2.643   2.197 -24.650  0.00  0.00    -0.491 OA
ENDBRANCH   1  27
TORSDOF 1
ENDMDL
MODEL 3
REMARK VINA RESULT:    -9.877      1.795      4.893
REMARK INTER + INTRA:         -10.607
REMARK INTER:                 -10.486
REMARK INTRA:                  -0.121
REMARK UNBOUND:                -0.152
REMARK  Name = COc1cc(Br)c2c3c1O[C@H]1C4(CC[C@@H]5[C@H](C2)N(C)CC[C@@]351)OCCO4     ZINC000100392459
REMARK  3 active torsions:
REMARK  status: ('A' for Active; 'I' for Inactive)
REMARK    1  A    between atoms: C_1  and  O_2
REMARK    2  A    between atoms: O_2  and  C_3
REMARK    3  A    between atoms: N_18  and  C_19
REMARK                            x       y       z     vdW  Elec       q    Type
REMARK                         _______ _______ _______ _____ _____    ______ ____
ROOT
ATOM      1  C   UNL     1      -4.310   2.943 -22.251  0.00  0.00    +0.163 A 
ATOM      2  C   UNL     1      -4.814   3.483 -23.286  0.00  0.00    +0.065 A 
ATOM      3  C   UNL     1      -4.081   3.833 -24.244  0.00  0.00    +0.025 A 
ATOM      4  C   UNL     1      -2.838   3.648 -24.180  0.00  0.00    -0.021 A 
ATOM      5  C   UNL     1      -2.313   3.112 -23.161  0.00  0.00    +0.013 A 
ATOM      6  C   UNL     1      -1.072   2.928 -23.098  0.00  0.00    +0.054 C 
ATOM      7  C   UNL     1       0.325   2.670 -22.918  0.00  0.00    +0.067 C 
ATOM      8  C   UNL     1       1.179   3.055 -23.985  0.00  0.00    +0.132 C 
ATOM      9  N   UNL     1       0.579   3.654 -25.121  0.00  0.00    +0.236 N 
ATOM     10  H   UNL     1       1.138   3.952 -25.921  0.00  0.00    +0.203 HD
ATOM     11  C   UNL     1       1.264   4.023 -26.109  0.00  0.00    +0.190 C 
ATOM     12  C   UNL     1      -0.843   3.818 -25.091  0.00  0.00    +0.073 C 
ATOM     13  C   UNL     1      -0.337   3.279 -24.059  0.00  0.00    +0.053 C 
ATOM     14  C   UNL     1       0.919   3.092 -23.995  0.00  0.00    +0.015 C 
ATOM     15  C   UNL     1       1.428   2.558 -22.975  0.00  0.00    +0.069 C 
ATOM     16  C   UNL     1       0.691   2.203 -22.003  0.00  0.00    +0.208 C 
ATOM     17  O   UNL     1       0.058   1.815 -20.989  0.00  0.00    -0.343 OA
ATOM     18  C   UNL     1       0.886   1.335 -20.173  0.00  0.00    +0.191 C 
ATOM     19  C   UNL     1       2.031   1.427 -20.685  0.00  0.00    +0.191 C 
ATOM     20  O   UNL     1       1.911   1.963 -21.815  0.00  0.00    -0.343 OA
ATOM     21  C   UNL     1      -0.550   2.387 -22.065  0.00  0.00    +0.244 C 
ATOM     22  O   UNL     1      -1.897   2.236 -21.373  0.00  0.00    -0.479 OA
ATOM     23  C   UNL     1      -2.085   4.003 -25.155  0.00  0.00    +0.091 C 
ATOM     24 BR   UNL     1      -4.587   4.366 -25.262  0.00  0.00    -0.050 Br
ATOM     25  C   UNL     1      -3.052   2.757 -22.190  0.00  0.00    +0.167 A 
ENDROOT
BRANCH   1  27
ATOM     26  C   UNL     1      -6.297   2.552 -21.447  0.00  0.00    +0.277 C 
ATOM     27  O   UNL     1      -5.050   2.595 -21.295  0.00  0.00    -0.491 OA
ENDBRANCH   1  27
TORSDOF 1
ENDMDL
MODEL 4
REMARK VINA RESULT:    -8.841      2.651      5.922
REMARK INTER + INTRA:          -9.510
REMARK INTER:                  -9.398
REMARK INTRA:                  -0.112
REMARK UNBOUND:                -0.152
REMARK  Name = COc1cc(Br)c2c3c1O[C@H]1C4(CC[C@@H]5[C@H](C2)N(C)CC[C@@]351)OCCO4     ZINC000100392459
REMARK  3 active torsions:
REMARK  status: ('A' for Active; 'I' for Inactive)
REMARK    1  A    between atoms: C_1  and  O_2
REMARK    2  A    between atoms: O_2  and  C_3
REMARK    3  A    between atoms: N_18  and  C_19
REMARK                            x       y       z     vdW  Elec       q    Type
REMARK                         _______ _______ _______ _____ _____    ______ ____
ROOT
ATOM      1  C   UNL     1      -4.234   3.682 -24.041  0.00  0.00    +0.163 A 
ATOM      2  C   UNL     1      -4.880   3.426 -22.976  0.00  0.00    +0.065 A 
ATOM      3  C   UNL     1      -4.293   2.954 -21.971  0.00  0.00    +0.025 A 
ATOM      4  C   UNL     1      -3.055   2.732 -22.018  0.00  0.00    -0.021 A 
ATOM      5  C   UNL     1      -2.390   2.978 -23.066  0.00  0.00    +0.013 A 
ATOM      6  C   UNL     1      -1.155   2.756 -23.112  0.00  0.00    +0.054 C 
ATOM      7  C   UNL     1       0.252   2.543 -23.276  0.00  0.00    +0.067 C 
ATOM      8  C   UNL     1       0.943   2.010 -22.157  0.00  0.00    +0.132 C 
ATOM      9  N   UNL     1       0.188   1.739 -20.988  0.00  0.00    +0.236 N 
ATOM     10  H   UNL     1       0.626   1.355 -20.150  0.00  0.00    +0.203 HD
ATOM     11  C   UNL     1       0.724   1.266 -19.953  0.00  0.00    +0.190 C 
ATOM     12  C   UNL     1      -1.213   2.028 -21.042  0.00  0.00    +0.073 C 
ATOM     13  C   UNL     1      -0.566   2.282 -22.103  0.00  0.00    +0.053 C 
ATOM     14  C   UNL     1       0.686   2.058 -22.150  0.00  0.00    +0.015 C 
ATOM     15  C   UNL     1       1.334   2.307 -23.199  0.00  0.00    +0.069 C 
ATOM     16  C   UNL     1       0.744   2.784 -24.218  0.00  0.00    +0.208 C 
ATOM     17  O   UNL     1       0.264   3.256 -25.280  0.00  0.00    -0.343 OA
ATOM     18  C   UNL     1       1.199   3.372 -26.112  0.00  0.00    +0.191 C 
ATOM     19  C   UNL     1       2.258   2.972 -25.564  0.00  0.00    +0.191 C 
ATOM     20  O   UNL     1       1.977   2.609 -24.394  0.00  0.00    -0.343 OA
ATOM     21  C   UNL     1      -0.491   3.007 -24.174  0.00  0.00    +0.244 C 
ATOM     22  O   UNL     1      -1.723   3.508 -24.913  0.00  0.00    -0.479 OA
ATOM     23  C   UNL     1      -2.450   2.251 -20.996  0.00  0.00    +0.091 C 
ATOM     24 BR   UNL     1      -4.938   2.705 -20.924  0.00  0.00    -0.050 Br
ATOM     25  C   UNL     1      -2.982   3.456 -24.085  0.00  0.00    +0.167 A 
ENDROOT
BRANCH   1  27
ATOM     26  C   UNL     1      -4.881   3.494 -26.113  0.00  0.00    +0.277 C 
ATOM     27  O   UNL     1      -4.828   4.154 -25.044  0.00  0.00    -0.491 OA
ENDBRANCH   1  27
TORSDOF 1
ENDMDL
MODEL 5
REMARK VINA RESULT:    -8.697      3.990      5.638
REMARK INTER + INTRA:          -9.358
REMARK INTER:                  -9.234
REMARK INTRA:                  -0.124
REMARK UNBOUND:                -0.152
REMARK  Name = COc1cc(Br)c2c3c1O[C@H]1C4(CC[C@@H]5[C@H](C2)N(C)CC[C@@]351)OCCO4     ZINC000100392459
REMARK  3 active torsions:
REMARK  status: ('A' for Active; 'I' for Inactive)
REMARK    1  A    between atoms: C_1  and  O_2
REMARK    2  A    between atoms: O_2  and  C_3
REMARK    3  A    between atoms: N_18  and  C_19
REMARK                            x       y       z     vdW  Elec       q    Type
REMARK                         _______ _______ _______ _____ _____    ______ ____
ROOT
ATOM      1  C   UNL     1       4.863   6.572 -22.245  0.00  0.00    +0.163 A 
ATOM      2  C   UNL     1       6.007   6.027 -22.356  0.00  0.00    +0.065 A 
ATOM      3  C   UNL     1       6.117   4.864 -22.818  0.00  0.00    +0.025 A 
ATOM      4  C   UNL     1       5.089   4.233 -23.175  0.00  0.00    -0.021 A 
ATOM      5  C   UNL     1       3.940   4.754 -23.075  0.00  0.00    +0.013 A 
ATOM      6  C   UNL     1       2.914   4.123 -23.431  0.00  0.00    +0.054 C 
ATOM      7  C   UNL     1       1.679   3.500 -23.805  0.00  0.00    +0.067 C 
ATOM      8  C   UNL     1       1.773   2.185 -24.331  0.00  0.00    +0.132 C 
ATOM      9  N   UNL     1       3.065   1.611 -24.438  0.00  0.00    +0.236 N 
ATOM     10  H   UNL     1       3.199   0.670 -24.808  0.00  0.00    +0.203 HD
ATOM     11  C   UNL     1       3.234   0.452 -24.894  0.00  0.00    +0.190 C 
ATOM     12  C   UNL     1       4.167   2.415 -24.004  0.00  0.00    +0.073 C 
ATOM     13  C   UNL     1       3.025   2.957 -23.895  0.00  0.00    +0.053 C 
ATOM     14  C   UNL     1       1.985   2.319 -24.255  0.00  0.00    +0.015 C 
ATOM     15  C   UNL     1       0.849   2.849 -24.150  0.00  0.00    +0.069 C 
ATOM     16  C   UNL     1       0.732   4.025 -23.683  0.00  0.00    +0.208 C 
ATOM     17  O   UNL     1       0.502   5.177 -23.236  0.00  0.00    -0.343 OA
ATOM     18  C   UNL     1      -0.740   5.370 -23.278  0.00  0.00    +0.191 C 
ATOM     19  C   UNL     1      -1.276   4.336 -23.751  0.00  0.00    +0.191 C 
ATOM     20  O   UNL     1      -0.368   3.505 -24.001  0.00  0.00    -0.343 OA
ATOM     21  C   UNL     1       1.757   4.657 -23.326  0.00  0.00    +0.244 C 
ATOM     22  O   UNL     1       2.324   5.944 -22.747  0.00  0.00    -0.479 OA
ATOM     23  C   UNL     1       5.195   3.046 -23.648  0.00  0.00    +0.091 C 
ATOM     24 BR   UNL     1       7.250   4.333 -22.924  0.00  0.00    -0.050 Br
ATOM     25  C   UNL     1       3.825   5.930 -22.607  0.00  0.00    +0.167 A 
ENDROOT
BRANCH   1  27
ATOM     26  C   UNL     1       5.460   8.087 -20.798  0.00  0.00    +0.277 C 
ATOM     27  O   UNL     1       4.760   7.736 -21.782  0.00  0.00    -0.491 OA
ENDBRANCH   1  27
TORSDOF 1
ENDMDL
MODEL 6
REMARK VINA RESULT:    -8.497      5.154      8.156
REMARK INTER + INTRA:          -9.146
REMARK INTER:                  -9.013
REMARK INTRA:                  -0.132
REMARK UNBOUND:                -0.152
REMARK  Name = COc1cc(Br)c2c3c1O[C@H]1C4(CC[C@@H]5[C@H](C2)N(C)CC[C@@]351)OCCO4     ZINC000100392459
REMARK  3 active torsions:
REMARK  status: ('A' for Active; 'I' for Inactive)
REMARK    1  A    between atoms: C_1  and  O_2
REMARK    2  A    between atoms: O_2  and  C_3
REMARK    3  A    between atoms: N_18  and  C_19
REMARK                            x       y       z     vdW  Elec       q    Type
REMARK                         _______ _______ _______ _____ _____    ______ ____
ROOT
ATOM      1  C   UNL     1       1.272   4.737 -23.597  0.00  0.00    +0.163 A 
ATOM      2  C   UNL     1       1.257   3.594 -24.153  0.00  0.00    +0.065 A 
ATOM      3  C   UNL     1       2.320   2.940 -24.297  0.00  0.00    +0.025 A 
ATOM      4  C   UNL     1       3.409   3.419 -23.888  0.00  0.00    -0.021 A 
ATOM      5  C   UNL     1       3.450   4.555 -23.331  0.00  0.00    +0.013 A 
ATOM      6  C   UNL     1       4.538   5.033 -22.922  0.00  0.00    +0.054 C 
ATOM      7  C   UNL     1       5.716   5.673 -22.420  0.00  0.00    +0.067 C 
ATOM      8  C   UNL     1       6.933   4.958 -22.568  0.00  0.00    +0.132 C 
ATOM      9  N   UNL     1       6.875   3.687 -23.194  0.00  0.00    +0.236 N 
ATOM     10  H   UNL     1       7.714   3.124 -23.330  0.00  0.00    +0.203 HD
ATOM     11  C   UNL     1       7.907   2.990 -23.364  0.00  0.00    +0.190 C 
ATOM     12  C   UNL     1       5.585   3.236 -23.622  0.00  0.00    +0.073 C 
ATOM     13  C   UNL     1       5.604   4.377 -23.066  0.00  0.00    +0.053 C 
ATOM     14  C   UNL     1       6.704   4.861 -22.652  0.00  0.00    +0.015 C 
ATOM     15  C   UNL     1       6.731   5.991 -22.101  0.00  0.00    +0.069 C 
ATOM     16  C   UNL     1       5.658   6.656 -21.953  0.00  0.00    +0.208 C 
ATOM     17  O   UNL     1       4.662   7.397 -21.756  0.00  0.00    -0.343 OA
ATOM     18  C   UNL     1       5.060   8.443 -21.184  0.00  0.00    +0.191 C 
ATOM     19  C   UNL     1       6.304   8.348 -21.027  0.00  0.00    +0.191 C 
ATOM     20  O   UNL     1       6.674   7.245 -21.502  0.00  0.00    -0.343 OA
ATOM     21  C   UNL     1       4.570   6.180 -22.361  0.00  0.00    +0.244 C 
ATOM     22  O   UNL     1       3.069   6.376 -22.510  0.00  0.00    -0.479 OA
ATOM     23  C   UNL     1       4.497   2.757 -24.032  0.00  0.00    +0.091 C 
ATOM     24 BR   UNL     1       2.296   1.812 -24.848  0.00  0.00    -0.050 Br
ATOM     25  C   UNL     1       2.376   5.219 -23.184  0.00  0.00    +0.167 A 
ENDROOT
BRANCH   1  27
ATOM     26  C   UNL     1      -0.777   4.864 -22.868  0.00  0.00    +0.277 C 
ATOM     27  O   UNL     1       0.205   5.386 -23.456  0.00  0.00    -0.491 OA
ENDBRANCH   1  27
TORSDOF 1
ENDMDL
MODEL 7
REMARK VINA RESULT:    -8.227      3.829      7.761
REMARK INTER + INTRA:          -8.860
REMARK INTER:                  -8.739
REMARK INTRA:                  -0.121
REMARK UNBOUND:                -0.152
REMARK  Name = COc1cc(Br)c2c3c1O[C@H]1C4(CC[C@@H]5[C@H](C2)N(C)CC[C@@]351)OCCO4     ZINC000100392459
REMARK  3 active torsions:
REMARK  status: ('A' for Active; 'I' for Inactive)
REMARK    1  A    between atoms: C_1  and  O_2
REMARK    2  A    between atoms: O_2  and  C_3
REMARK    3  A    between atoms: N_18  and  C_19
REMARK                            x       y       z     vdW  Elec       q    Type
REMARK                         _______ _______ _______ _____ _____    ______ ____
ROOT
ATOM      1  C   UNL     1       0.683   4.143 -23.270  0.00  0.00    +0.163 A 
ATOM      2  C   UNL     1      -0.085   3.226 -22.839  0.00  0.00    +0.065 A 
ATOM      3  C   UNL     1       0.389   2.214 -22.264  0.00  0.00    +0.025 A 
ATOM      4  C   UNL     1       1.633   2.107 -22.113  0.00  0.00    -0.021 A 
ATOM      5  C   UNL     1       2.418   3.006 -22.534  0.00  0.00    +0.013 A 
ATOM      6  C   UNL     1       3.661   2.897 -22.382  0.00  0.00    +0.054 C 
ATOM      7  C   UNL     1       5.088   2.879 -22.266  0.00  0.00    +0.067 C 
ATOM      8  C   UNL     1       5.653   1.748 -21.620  0.00  0.00    +0.132 C 
ATOM      9  N   UNL     1       4.763   0.747 -21.154  0.00  0.00    +0.236 N 
ATOM     10  H   UNL     1       5.106  -0.089 -20.682  0.00  0.00    +0.203 HD
ATOM     11  C   UNL     1       5.182  -0.286 -20.572  0.00  0.00    +0.190 C 
ATOM     12  C   UNL     1       3.366   0.969 -21.377  0.00  0.00    +0.073 C 
ATOM     13  C   UNL     1       4.136   1.883 -21.806  0.00  0.00    +0.053 C 
ATOM     14  C   UNL     1       5.394   1.774 -21.653  0.00  0.00    +0.015 C 
ATOM     15  C   UNL     1       6.163   2.675 -22.076  0.00  0.00    +0.069 C 
ATOM     16  C   UNL     1       5.688   3.700 -22.658  0.00  0.00    +0.208 C 
ATOM     17  O   UNL     1       5.329   4.751 -23.245  0.00  0.00    -0.343 OA
ATOM     18  C   UNL     1       6.360   5.416 -23.522  0.00  0.00    +0.191 C 
ATOM     19  C   UNL     1       7.357   4.774 -23.105  0.00  0.00    +0.191 C 
ATOM     20  O   UNL     1       6.943   3.714 -22.571  0.00  0.00    -0.343 OA
ATOM     21  C   UNL     1       4.446   3.810 -22.810  0.00  0.00    +0.244 C 
ATOM     22  O   UNL     1       3.297   4.651 -23.344  0.00  0.00    -0.479 OA
ATOM     23  C   UNL     1       2.123   1.077 -21.528  0.00  0.00    +0.091 C 
ATOM     24 BR   UNL     1      -0.377   1.313 -21.842  0.00  0.00    -0.050 Br
ATOM     25  C   UNL     1       1.942   4.030 -23.115  0.00  0.00    +0.167 A 
ENDROOT
BRANCH   1  27
ATOM     26  C   UNL     1      -1.029   5.394 -23.769  0.00  0.00    +0.277 C 
ATOM     27  O   UNL     1       0.203   5.152 -23.844  0.00  0.00    -0.491 OA
ENDBRANCH   1  27
TORSDOF 1
ENDMDL
MODEL 8
REMARK VINA RESULT:    -8.035      2.311      4.713
REMARK INTER + INTRA:          -8.657
REMARK INTER:                  -8.505
REMARK INTRA:                  -0.152
REMARK UNBOUND:                -0.152
REMARK  Name = COc1cc(Br)c2c3c1O[C@H]1C4(CC[C@@H]5[C@H](C2)N(C)CC[C@@]351)OCCO4     ZINC000100392459
REMARK  3 active torsions:
REMARK  status: ('A' for Active; 'I' for Inactive)
REMARK    1  A    between atoms: C_1  and  O_2
REMARK    2  A    between atoms: O_2  and  C_3
REMARK    3  A    between atoms: N_18  and  C_19
REMARK                            x       y       z     vdW  Elec       q    Type
REMARK                         _______ _______ _______ _____ _____    ______ ____
ROOT
ATOM      1  C   UNL     1      -3.793   3.005 -20.846  0.00  0.00    +0.163 A 
ATOM      2  C   UNL     1      -5.015   3.081 -21.190  0.00  0.00    +0.065 A 
ATOM      3  C   UNL     1      -5.331   3.225 -22.397  0.00  0.00    +0.025 A 
ATOM      4  C   UNL     1      -4.431   3.294 -23.274  0.00  0.00    -0.021 A 
ATOM      5  C   UNL     1      -3.208   3.221 -22.958  0.00  0.00    +0.013 A 
ATOM      6  C   UNL     1      -2.311   3.290 -23.834  0.00  0.00    +0.054 C 
ATOM      7  C   UNL     1      -1.208   3.356 -24.746  0.00  0.00    +0.067 C 
ATOM      8  C   UNL     1      -1.534   3.519 -26.118  0.00  0.00    +0.132 C 
ATOM      9  N   UNL     1      -2.908   3.600 -26.460  0.00  0.00    +0.236 N 
ATOM     10  H   UNL     1      -3.208   3.717 -27.428  0.00  0.00    +0.203 HD
ATOM     11  C   UNL     1      -3.281   3.744 -27.652  0.00  0.00    +0.190 C 
ATOM     12  C   UNL     1      -3.849   3.510 -25.385  0.00  0.00    +0.073 C 
ATOM     13  C   UNL     1      -2.628   3.434 -25.045  0.00  0.00    +0.053 C 
ATOM     14  C   UNL     1      -1.719   3.504 -25.932  0.00  0.00    +0.015 C 
ATOM     15  C   UNL     1      -0.508   3.429 -25.604  0.00  0.00    +0.069 C 
ATOM     16  C   UNL     1      -0.183   3.284 -24.383  0.00  0.00    +0.208 C 
ATOM     17  O   UNL     1       0.249   3.140 -23.212  0.00  0.00    -0.343 OA
ATOM     18  C   UNL     1       1.505   3.106 -23.261  0.00  0.00    +0.191 C 
ATOM     19  C   UNL     1       1.849   3.228 -24.464  0.00  0.00    +0.191 C 
ATOM     20  O   UNL     1       0.806   3.338 -25.158  0.00  0.00    -0.343 OA
ATOM     21  C   UNL     1      -1.079   3.214 -23.506  0.00  0.00    +0.244 C 
ATOM     22  O   UNL     1      -1.406   3.061 -22.028  0.00  0.00    -0.479 OA
ATOM     23  C   UNL     1      -4.747   3.441 -24.508  0.00  0.00    +0.091 C 
ATOM     24 BR   UNL     1      -6.540   3.300 -22.727  0.00  0.00    -0.050 Br
ATOM     25  C   UNL     1      -2.886   3.075 -21.737  0.00  0.00    +0.167 A 
ENDROOT
BRANCH   1  27
ATOM     26  C   UNL     1      -2.997   3.825 -18.991  0.00  0.00    +0.277 C 
ATOM     27  O   UNL     1      -3.483   2.861 -19.636  0.00  0.00    -0.491 OA
ENDBRANCH   1  27
TORSDOF 1
ENDMDL
