MODEL 1
REMARK VINA RESULT:   -10.849      0.000      0.000
REMARK INTER + INTRA:         -11.580
REMARK INTER:                 -11.481
REMARK INTRA:                  -0.099
REMARK UNBOUND:                -0.096
REMARK  Name = COc1ccc2c(c1)[C@@]13CCN(C)[C@H](C2)[C@@H]1[C@@H](C)CC(=O)C3          ZINC000100393709
REMARK  4 active torsions:
REMARK  status: ('A' for Active; 'I' for Inactive)
REMARK    1  A    between atoms: C_1  and  O_2
REMARK    2  A    between atoms: O_2  and  C_3
REMARK    3  A    between atoms: N_12  and  C_13
REMARK    4  A    between atoms: C_17  and  C_18
REMARK                            x       y       z     vdW  Elec       q    Type
REMARK                         _______ _______ _______ _____ _____    ______ ____
ROOT
ATOM      1  C   UNL     1       0.144   3.899 -23.950  0.00  0.00    +0.120 A 
ATOM      2  C   UNL     1      -0.096   3.830 -25.193  0.00  0.00    +0.046 A 
ATOM      3  C   UNL     1      -1.295   3.695 -25.576  0.00  0.00    +0.008 A 
ATOM      4  C   UNL     1      -2.366   3.621 -24.571  0.00  0.00    -0.038 A 
ATOM      5  C   UNL     1      -2.091   3.685 -23.549  0.00  0.00    -0.033 A 
ATOM      6  C   UNL     1      -2.615   3.660 -22.755  0.00  0.00    +0.016 C 
ATOM      7  C   UNL     1      -1.524   3.726 -24.037  0.00  0.00    +0.063 C 
ATOM      8  C   UNL     1      -2.030   3.625 -25.417  0.00  0.00    +0.132 C 
ATOM      9  N   UNL     1      -3.185   3.501 -25.600  0.00  0.00    +0.236 N 
ATOM     10  H   UNL     1      -4.184   3.406 -25.419  0.00  0.00    +0.203 HD
ATOM     11  C   UNL     1      -4.226   3.438 -24.407  0.00  0.00    +0.073 C 
ATOM     12  C   UNL     1      -3.005   3.471 -26.990  0.00  0.00    +0.190 C 
ATOM     13  C   UNL     1      -2.298   3.735 -21.540  0.00  0.00    +0.086 C 
ATOM     14  C   UNL     1      -3.217   3.674 -20.627  0.00  0.00    +0.134 C 
ATOM     15  O   UNL     1      -2.889   3.751 -19.387  0.00  0.00    -0.297 OA
ATOM     16  C   UNL     1      -4.485   3.533 -20.952  0.00  0.00    +0.078 C 
ATOM     17  C   UNL     1      -4.858   3.452 -22.192  0.00  0.00    +0.002 C 
ATOM     18  C   UNL     1      -6.101   3.314 -22.492  0.00  0.00    +0.008 C 
ATOM     19  C   UNL     1      -3.992   3.507 -23.106  0.00  0.00    +0.052 C 
ATOM     20  C   UNL     1      -3.566   3.485 -24.963  0.00  0.00    +0.090 C 
ATOM     21  C   UNL     1      -0.842   3.828 -23.117  0.00  0.00    +0.050 A 
ENDROOT
BRANCH   1  23
ATOM     22  C   UNL     1       2.284   4.861 -23.335  0.00  0.00    +0.277 C 
ATOM     23  O   UNL     1       1.329   4.045 -23.228  0.00  0.00    -0.495 OA
ENDBRANCH   1  23
TORSDOF 1
ENDMDL
MODEL 2
REMARK VINA RESULT:   -10.200      2.131      4.735
REMARK INTER + INTRA:         -10.892
REMARK INTER:                 -10.751
REMARK INTRA:                  -0.141
REMARK UNBOUND:                -0.096
REMARK  Name = COc1ccc2c(c1)[C@@]13CCN(C)[C@H](C2)[C@@H]1[C@@H](C)CC(=O)C3          ZINC000100393709
REMARK  4 active torsions:
REMARK  status: ('A' for Active; 'I' for Inactive)
REMARK    1  A    between atoms: C_1  and  O_2
REMARK    2  A    between atoms: O_2  and  C_3
REMARK    3  A    between atoms: N_12  and  C_13
REMARK    4  A    between atoms: C_17  and  C_18
REMARK                            x       y       z     vdW  Elec       q    Type
REMARK                         _______ _______ _______ _____ _____    ______ ____
ROOT
ATOM      1  C   UNL     1      -3.654   3.845 -24.979  0.00  0.00    +0.120 A 
ATOM      2  C   UNL     1      -4.536   3.738 -24.075  0.00  0.00    +0.046 A 
ATOM      3  C   UNL     1      -4.195   3.293 -22.940  0.00  0.00    +0.008 A 
ATOM      4  C   UNL     1      -2.792   2.916 -22.709  0.00  0.00    -0.038 A 
ATOM      5  C   UNL     1      -2.109   3.032 -23.512  0.00  0.00    -0.033 A 
ATOM      6  C   UNL     1      -1.177   2.852 -23.574  0.00  0.00    +0.016 C 
ATOM      7  C   UNL     1      -2.816   3.232 -23.660  0.00  0.00    +0.063 C 
ATOM      8  C   UNL     1      -3.665   3.026 -22.473  0.00  0.00    +0.132 C 
ATOM      9  N   UNL     1      -3.185   2.600 -21.488  0.00  0.00    +0.236 N 
ATOM     10  H   UNL     1      -2.492   2.236 -20.833  0.00  0.00    +0.203 HD
ATOM     11  C   UNL     1      -1.645   2.236 -21.388  0.00  0.00    +0.073 C 
ATOM     12  C   UNL     1      -4.414   2.644 -20.818  0.00  0.00    +0.190 C 
ATOM     13  C   UNL     1      -0.360   2.987 -24.521  0.00  0.00    +0.086 C 
ATOM     14  C   UNL     1       0.885   2.664 -24.352  0.00  0.00    +0.134 C 
ATOM     15  O   UNL     1       1.716   2.803 -25.322  0.00  0.00    -0.297 OA
ATOM     16  C   UNL     1       1.311   2.194 -23.198  0.00  0.00    +0.078 C 
ATOM     17  C   UNL     1       0.504   2.039 -22.194  0.00  0.00    +0.002 C 
ATOM     18  C   UNL     1       0.937   1.578 -21.074  0.00  0.00    +0.008 C 
ATOM     19  C   UNL     1      -0.713   2.342 -22.323  0.00  0.00    +0.052 C 
ATOM     20  C   UNL     1      -2.458   2.470 -21.568  0.00  0.00    +0.090 C 
ATOM     21  C   UNL     1      -2.438   3.496 -24.713  0.00  0.00    +0.050 A 
ENDROOT
BRANCH   1  23
ATOM     22  C   UNL     1      -3.340   3.763 -27.384  0.00  0.00    +0.277 C 
ATOM     23  O   UNL     1      -3.711   4.291 -26.300  0.00  0.00    -0.495 OA
ENDBRANCH   1  23
TORSDOF 1
ENDMDL
MODEL 3
REMARK VINA RESULT:   -10.112      1.935      2.503
REMARK INTER + INTRA:         -10.800
REMARK INTER:                 -10.703
REMARK INTRA:                  -0.097
REMARK UNBOUND:                -0.096
REMARK  Name = COc1ccc2c(c1)[C@@]13CCN(C)[C@H](C2)[C@@H]1[C@@H](C)CC(=O)C3          ZINC000100393709
REMARK  4 active torsions:
REMARK  status: ('A' for Active; 'I' for Inactive)
REMARK    1  A    between atoms: C_1  and  O_2
REMARK    2  A    between atoms: O_2  and  C_3
REMARK    3  A    between atoms: N_12  and  C_13
REMARK    4  A    between atoms: C_17  and  C_18
REMARK                            x       y       z     vdW  Elec       q    Type
REMARK                         _______ _______ _______ _____ _____    ______ ____
ROOT
ATOM      1  C   UNL     1       0.766   1.916 -21.895  0.00  0.00    +0.120 A 
ATOM      2  C   UNL     1       1.407   2.268 -22.931  0.00  0.00    +0.046 A 
ATOM      3  C   UNL     1       0.775   2.816 -23.881  0.00  0.00    +0.008 A 
ATOM      4  C   UNL     1      -0.675   3.026 -23.752  0.00  0.00    -0.038 A 
ATOM      5  C   UNL     1      -1.145   2.706 -22.857  0.00  0.00    -0.033 A 
ATOM      6  C   UNL     1      -2.052   2.746 -22.575  0.00  0.00    +0.016 C 
ATOM      7  C   UNL     1      -0.405   2.586 -22.893  0.00  0.00    +0.063 C 
ATOM      8  C   UNL     1       0.129   3.070 -24.178  0.00  0.00    +0.132 C 
ATOM      9  N   UNL     1      -0.602   3.560 -24.958  0.00  0.00    +0.236 N 
ATOM     10  H   UNL     1      -1.458   3.913 -25.387  0.00  0.00    +0.203 HD
ATOM     11  C   UNL     1      -2.154   3.719 -24.677  0.00  0.00    +0.073 C 
ATOM     12  C   UNL     1       0.443   3.778 -25.865  0.00  0.00    +0.190 C 
ATOM     13  C   UNL     1      -2.617   2.369 -21.516  0.00  0.00    +0.086 C 
ATOM     14  C   UNL     1      -3.895   2.539 -21.368  0.00  0.00    +0.134 C 
ATOM     15  O   UNL     1      -4.467   2.153 -20.285  0.00  0.00    -0.297 OA
ATOM     16  C   UNL     1      -4.615   3.103 -22.316  0.00  0.00    +0.078 C 
ATOM     17  C   UNL     1      -4.075   3.506 -23.424  0.00  0.00    +0.002 C 
ATOM     18  C   UNL     1      -4.794   4.054 -24.338  0.00  0.00    +0.008 C 
ATOM     19  C   UNL     1      -2.836   3.357 -23.601  0.00  0.00    +0.052 C 
ATOM     20  C   UNL     1      -1.302   3.577 -24.710  0.00  0.00    +0.090 C 
ATOM     21  C   UNL     1      -0.508   2.128 -21.844  0.00  0.00    +0.050 A 
ENDROOT
BRANCH   1  23
ATOM     22  C   UNL     1       2.297   1.172 -20.166  0.00  0.00    +0.277 C 
ATOM     23  O   UNL     1       1.165   1.302 -20.707  0.00  0.00    -0.495 OA
ENDBRANCH   1  23
TORSDOF 1
ENDMDL
MODEL 4
REMARK VINA RESULT:    -9.738      2.064      3.763
REMARK INTER + INTRA:         -10.404
REMARK INTER:                 -10.260
REMARK INTRA:                  -0.144
REMARK UNBOUND:                -0.096
REMARK  Name = COc1ccc2c(c1)[C@@]13CCN(C)[C@H](C2)[C@@H]1[C@@H](C)CC(=O)C3          ZINC000100393709
REMARK  4 active torsions:
REMARK  status: ('A' for Active; 'I' for Inactive)
REMARK    1  A    between atoms: C_1  and  O_2
REMARK    2  A    between atoms: O_2  and  C_3
REMARK    3  A    between atoms: N_12  and  C_13
REMARK    4  A    between atoms: C_17  and  C_18
REMARK                            x       y       z     vdW  Elec       q    Type
REMARK                         _______ _______ _______ _____ _____    ______ ____
ROOT
ATOM      1  C   UNL     1       0.024   2.195 -22.992  0.00  0.00    +0.120 A 
ATOM      2  C   UNL     1      -0.235   2.226 -21.751  0.00  0.00    +0.046 A 
ATOM      3  C   UNL     1      -1.381   2.614 -21.378  0.00  0.00    +0.008 A 
ATOM      4  C   UNL     1      -2.369   3.014 -22.391  0.00  0.00    -0.038 A 
ATOM      5  C   UNL     1      -2.082   2.963 -23.411  0.00  0.00    -0.033 A 
ATOM      6  C   UNL     1      -2.557   3.170 -24.208  0.00  0.00    +0.016 C 
ATOM      7  C   UNL     1      -1.557   2.752 -22.918  0.00  0.00    +0.063 C 
ATOM      8  C   UNL     1      -2.073   2.867 -21.542  0.00  0.00    +0.132 C 
ATOM      9  N   UNL     1      -3.172   3.248 -21.369  0.00  0.00    +0.236 N 
ATOM     10  H   UNL     1      -4.113   3.591 -21.558  0.00  0.00    +0.203 HD
ATOM     11  C   UNL     1      -4.127   3.646 -22.569  0.00  0.00    +0.073 C 
ATOM     12  C   UNL     1      -3.038   3.132 -19.979  0.00  0.00    +0.190 C 
ATOM     13  C   UNL     1      -2.225   3.112 -25.420  0.00  0.00    +0.086 C 
ATOM     14  C   UNL     1      -3.072   3.458 -26.340  0.00  0.00    +0.134 C 
ATOM     15  O   UNL     1      -2.728   3.397 -27.576  0.00  0.00    -0.297 OA
ATOM     16  C   UNL     1      -4.282   3.871 -26.024  0.00  0.00    +0.078 C 
ATOM     17  C   UNL     1      -4.667   3.947 -24.789  0.00  0.00    +0.002 C 
ATOM     18  C   UNL     1      -5.852   4.353 -24.499  0.00  0.00    +0.008 C 
ATOM     19  C   UNL     1      -3.870   3.619 -23.868  0.00  0.00    +0.052 C 
ATOM     20  C   UNL     1      -3.516   3.402 -22.008  0.00  0.00    +0.090 C 
ATOM     21  C   UNL     1      -0.888   2.560 -23.832  0.00  0.00    +0.050 A 
ENDROOT
BRANCH   1  23
ATOM     22  C   UNL     1       1.811   2.405 -24.620  0.00  0.00    +0.277 C 
ATOM     23  O   UNL     1       1.166   1.826 -23.704  0.00  0.00    -0.495 OA
ENDBRANCH   1  23
TORSDOF 1
ENDMDL
MODEL 5
REMARK VINA RESULT:    -9.695      1.631      4.215
REMARK INTER + INTRA:         -10.358
REMARK INTER:                 -10.259
REMARK INTRA:                  -0.099
REMARK UNBOUND:                -0.096
REMARK  Name = COc1ccc2c(c1)[C@@]13CCN(C)[C@H](C2)[C@@H]1[C@@H](C)CC(=O)C3          ZINC000100393709
REMARK  4 active torsions:
REMARK  status: ('A' for Active; 'I' for Inactive)
REMARK    1  A    between atoms: C_1  and  O_2
REMARK    2  A    between atoms: O_2  and  C_3
REMARK    3  A    between atoms: N_12  and  C_13
REMARK    4  A    between atoms: C_17  and  C_18
REMARK                            x       y       z     vdW  Elec       q    Type
REMARK                         _______ _______ _______ _____ _____    ______ ____
ROOT
ATOM      1  C   UNL     1      -4.675   3.382 -22.948  0.00  0.00    +0.120 A 
ATOM      2  C   UNL     1      -5.022   3.753 -24.110  0.00  0.00    +0.046 A 
ATOM      3  C   UNL     1      -4.144   3.800 -25.021  0.00  0.00    +0.008 A 
ATOM      4  C   UNL     1      -2.758   3.424 -24.704  0.00  0.00    -0.038 A 
ATOM      5  C   UNL     1      -2.541   3.123 -23.710  0.00  0.00    -0.033 A 
ATOM      6  C   UNL     1      -1.729   2.845 -23.301  0.00  0.00    +0.016 C 
ATOM      7  C   UNL     1      -3.256   3.309 -23.842  0.00  0.00    +0.063 C 
ATOM      8  C   UNL     1      -3.430   3.707 -25.249  0.00  0.00    +0.132 C 
ATOM      9  N   UNL     1      -2.502   3.694 -25.971  0.00  0.00    +0.236 N 
ATOM     10  H   UNL     1      -1.547   3.578 -26.310  0.00  0.00    +0.203 HD
ATOM     11  C   UNL     1      -1.058   3.261 -25.482  0.00  0.00    +0.073 C 
ATOM     12  C   UNL     1      -3.280   4.136 -27.049  0.00  0.00    +0.190 C 
ATOM     13  C   UNL     1      -1.463   2.487 -22.125  0.00  0.00    +0.086 C 
ATOM     14  C   UNL     1      -0.251   2.149 -21.810  0.00  0.00    +0.134 C 
ATOM     15  O   UNL     1       0.016   1.784 -20.608  0.00  0.00    -0.297 OA
ATOM     16  C   UNL     1       0.713   2.174 -22.708  0.00  0.00    +0.078 C 
ATOM     17  C   UNL     1       0.485   2.536 -23.932  0.00  0.00    +0.002 C 
ATOM     18  C   UNL     1       1.438   2.554 -24.795  0.00  0.00    +0.008 C 
ATOM     19  C   UNL     1      -0.682   2.872 -24.274  0.00  0.00    +0.052 C 
ATOM     20  C   UNL     1      -1.884   3.474 -25.624  0.00  0.00    +0.090 C 
ATOM     21  C   UNL     1      -3.441   3.064 -22.734  0.00  0.00    +0.050 A 
ENDROOT
BRANCH   1  23
ATOM     22  C   UNL     1      -6.467   2.631 -21.495  0.00  0.00    +0.277 C 
ATOM     23  O   UNL     1      -5.389   3.229 -21.759  0.00  0.00    -0.495 OA
ENDBRANCH   1  23
TORSDOF 1
ENDMDL
MODEL 6
REMARK VINA RESULT:    -9.381      1.964      3.441
REMARK INTER + INTRA:         -10.025
REMARK INTER:                  -9.864
REMARK INTRA:                  -0.161
REMARK UNBOUND:                -0.096
REMARK  Name = COc1ccc2c(c1)[C@@]13CCN(C)[C@H](C2)[C@@H]1[C@@H](C)CC(=O)C3          ZINC000100393709
REMARK  4 active torsions:
REMARK  status: ('A' for Active; 'I' for Inactive)
REMARK    1  A    between atoms: C_1  and  O_2
REMARK    2  A    between atoms: O_2  and  C_3
REMARK    3  A    between atoms: N_12  and  C_13
REMARK    4  A    between atoms: C_17  and  C_18
REMARK                            x       y       z     vdW  Elec       q    Type
REMARK                         _______ _______ _______ _____ _____    ______ ____
ROOT
ATOM      1  C   UNL     1      -1.922   3.440 -26.029  0.00  0.00    +0.120 A 
ATOM      2  C   UNL     1      -0.669   3.444 -25.831  0.00  0.00    +0.046 A 
ATOM      3  C   UNL     1      -0.241   3.459 -24.639  0.00  0.00    +0.008 A 
ATOM      4  C   UNL     1      -1.207   3.473 -23.530  0.00  0.00    -0.038 A 
ATOM      5  C   UNL     1      -2.239   3.469 -23.771  0.00  0.00    -0.033 A 
ATOM      6  C   UNL     1      -3.014   3.475 -23.219  0.00  0.00    +0.016 C 
ATOM      7  C   UNL     1      -1.772   3.462 -24.358  0.00  0.00    +0.063 C 
ATOM      8  C   UNL     1      -0.373   3.469 -23.896  0.00  0.00    +0.132 C 
ATOM      9  N   UNL     1      -0.147   3.484 -22.742  0.00  0.00    +0.236 N 
ATOM     10  H   UNL     1      -0.291   3.497 -21.732  0.00  0.00    +0.203 HD
ATOM     11  C   UNL     1      -1.301   3.497 -21.656  0.00  0.00    +0.073 C 
ATOM     12  C   UNL     1       1.236   3.482 -22.969  0.00  0.00    +0.190 C 
ATOM     13  C   UNL     1      -4.240   3.471 -23.497  0.00  0.00    +0.086 C 
ATOM     14  C   UNL     1      -5.120   3.482 -22.543  0.00  0.00    +0.134 C 
ATOM     15  O   UNL     1      -6.371   3.478 -22.831  0.00  0.00    -0.297 OA
ATOM     16  C   UNL     1      -4.746   3.499 -21.280  0.00  0.00    +0.078 C 
ATOM     17  C   UNL     1      -3.493   3.504 -20.947  0.00  0.00    +0.002 C 
ATOM     18  C   UNL     1      -3.147   3.520 -19.709  0.00  0.00    +0.008 C 
ATOM     19  C   UNL     1      -2.611   3.493 -21.848  0.00  0.00    +0.052 C 
ATOM     20  C   UNL     1      -0.769   3.488 -22.338  0.00  0.00    +0.090 C 
ATOM     21  C   UNL     1      -2.717   3.453 -25.011  0.00  0.00    +0.050 A 
ENDROOT
BRANCH   1  23
ATOM     22  C   UNL     1      -3.878   3.771 -27.425  0.00  0.00    +0.277 C 
ATOM     23  O   UNL     1      -2.688   3.425 -27.196  0.00  0.00    -0.495 OA
ENDBRANCH   1  23
TORSDOF 1
ENDMDL
MODEL 7
REMARK VINA RESULT:    -9.178      2.224      4.763
REMARK INTER + INTRA:          -9.811
REMARK INTER:                  -9.715
REMARK INTRA:                  -0.096
REMARK UNBOUND:                -0.096
REMARK  Name = COc1ccc2c(c1)[C@@]13CCN(C)[C@H](C2)[C@@H]1[C@@H](C)CC(=O)C3          ZINC000100393709
REMARK  4 active torsions:
REMARK  status: ('A' for Active; 'I' for Inactive)
REMARK    1  A    between atoms: C_1  and  O_2
REMARK    2  A    between atoms: O_2  and  C_3
REMARK    3  A    between atoms: N_12  and  C_13
REMARK    4  A    between atoms: C_17  and  C_18
REMARK                            x       y       z     vdW  Elec       q    Type
REMARK                         _______ _______ _______ _____ _____    ______ ____
ROOT
ATOM      1  C   UNL     1      -2.871   2.581 -22.070  0.00  0.00    +0.120 A 
ATOM      2  C   UNL     1      -3.210   2.996 -23.219  0.00  0.00    +0.046 A 
ATOM      3  C   UNL     1      -2.311   3.161 -24.096  0.00  0.00    +0.008 A 
ATOM      4  C   UNL     1      -0.912   2.866 -23.755  0.00  0.00    -0.038 A 
ATOM      5  C   UNL     1      -0.703   2.522 -22.773  0.00  0.00    -0.033 A 
ATOM      6  C   UNL     1       0.116   2.278 -22.354  0.00  0.00    +0.016 C 
ATOM      7  C   UNL     1      -1.425   2.664 -22.918  0.00  0.00    +0.063 C 
ATOM      8  C   UNL     1      -1.586   3.132 -24.305  0.00  0.00    +0.132 C 
ATOM      9  N   UNL     1      -0.639   3.230 -24.994  0.00  0.00    +0.236 N 
ATOM     10  H   UNL     1       0.332   3.203 -25.307  0.00  0.00    +0.203 HD
ATOM     11  C   UNL     1       0.818   2.872 -24.482  0.00  0.00    +0.073 C 
ATOM     12  C   UNL     1      -1.414   3.679 -26.071  0.00  0.00    +0.190 C 
ATOM     13  C   UNL     1       0.372   1.870 -21.192  0.00  0.00    +0.086 C 
ATOM     14  C   UNL     1       1.595   1.600 -20.856  0.00  0.00    +0.134 C 
ATOM     15  O   UNL     1       1.852   1.183 -19.669  0.00  0.00    -0.297 OA
ATOM     16  C   UNL     1       2.581   1.748 -21.718  0.00  0.00    +0.078 C 
ATOM     17  C   UNL     1       2.363   2.166 -22.926  0.00  0.00    +0.002 C 
ATOM     18  C   UNL     1       3.337   2.305 -23.754  0.00  0.00    +0.008 C 
ATOM     19  C   UNL     1       1.186   2.438 -23.287  0.00  0.00    +0.052 C 
ATOM     20  C   UNL     1      -0.016   3.033 -24.640  0.00  0.00    +0.090 C 
ATOM     21  C   UNL     1      -1.624   2.340 -21.833  0.00  0.00    +0.050 A 
ENDROOT
BRANCH   1  23
ATOM     22  C   UNL     1      -4.849   2.229 -20.709  0.00  0.00    +0.277 C 
ATOM     23  O   UNL     1      -3.607   2.306 -20.917  0.00  0.00    -0.495 OA
ENDBRANCH   1  23
TORSDOF 1
ENDMDL
MODEL 8
REMARK VINA RESULT:    -9.012      2.274      3.422
REMARK INTER + INTRA:          -9.635
REMARK INTER:                  -9.511
REMARK INTRA:                  -0.124
REMARK UNBOUND:                -0.096
REMARK  Name = COc1ccc2c(c1)[C@@]13CCN(C)[C@H](C2)[C@@H]1[C@@H](C)CC(=O)C3          ZINC000100393709
REMARK  4 active torsions:
REMARK  status: ('A' for Active; 'I' for Inactive)
REMARK    1  A    between atoms: C_1  and  O_2
REMARK    2  A    between atoms: O_2  and  C_3
REMARK    3  A    between atoms: N_12  and  C_13
REMARK    4  A    between atoms: C_17  and  C_18
REMARK                            x       y       z     vdW  Elec       q    Type
REMARK                         _______ _______ _______ _____ _____    ______ ____
ROOT
ATOM      1  C   UNL     1       0.534   2.953 -24.449  0.00  0.00    +0.120 A 
ATOM      2  C   UNL     1       1.037   2.366 -23.444  0.00  0.00    +0.046 A 
ATOM      3  C   UNL     1       0.287   2.092 -22.461  0.00  0.00    +0.008 A 
ATOM      4  C   UNL     1      -1.135   2.461 -22.518  0.00  0.00    -0.038 A 
ATOM      5  C   UNL     1      -1.486   2.951 -23.391  0.00  0.00    -0.033 A 
ATOM      6  C   UNL     1      -2.350   3.269 -23.628  0.00  0.00    +0.016 C 
ATOM      7  C   UNL     1      -0.757   2.775 -23.391  0.00  0.00    +0.063 C 
ATOM      8  C   UNL     1      -0.392   2.103 -22.132  0.00  0.00    +0.132 C 
ATOM      9  N   UNL     1      -1.218   1.924 -21.314  0.00  0.00    +0.236 N 
ATOM     10  H   UNL     1      -2.122   1.924 -20.842  0.00  0.00    +0.203 HD
ATOM     11  C   UNL     1      -2.722   2.382 -21.518  0.00  0.00    +0.073 C 
ATOM     12  C   UNL     1      -0.298   1.305 -20.458  0.00  0.00    +0.190 C 
ATOM     13  C   UNL     1      -2.774   3.850 -24.661  0.00  0.00    +0.086 C 
ATOM     14  C   UNL     1      -4.023   4.190 -24.744  0.00  0.00    +0.134 C 
ATOM     15  O   UNL     1      -4.452   4.783 -25.800  0.00  0.00    -0.297 OA
ATOM     16  C   UNL     1      -4.860   3.936 -23.759  0.00  0.00    +0.078 C 
ATOM     17  C   UNL     1      -4.467   3.340 -22.677  0.00  0.00    +0.002 C 
ATOM     18  C   UNL     1      -5.299   3.100 -21.726  0.00  0.00    +0.008 C 
ATOM     19  C   UNL     1      -3.260   2.995 -22.561  0.00  0.00    +0.052 C 
ATOM     20  C   UNL     1      -1.880   2.183 -21.528  0.00  0.00    +0.090 C 
ATOM     21  C   UNL     1      -0.723   3.251 -24.437  0.00  0.00    +0.050 A 
ENDROOT
BRANCH   1  23
ATOM     22  C   UNL     1       1.267   4.531 -26.140  0.00  0.00    +0.277 C 
ATOM     23  O   UNL     1       1.083   3.380 -25.659  0.00  0.00    -0.495 OA
ENDBRANCH   1  23
TORSDOF 1
ENDMDL
MODEL 9
REMARK VINA RESULT:    -8.728      3.978      6.543
REMARK INTER + INTRA:          -9.334
REMARK INTER:                  -9.238
REMARK INTRA:                  -0.096
REMARK UNBOUND:                -0.096
REMARK  Name = COc1ccc2c(c1)[C@@]13CCN(C)[C@H](C2)[C@@H]1[C@@H](C)CC(=O)C3          ZINC000100393709
REMARK  4 active torsions:
REMARK  status: ('A' for Active; 'I' for Inactive)
REMARK    1  A    between atoms: C_1  and  O_2
REMARK    2  A    between atoms: O_2  and  C_3
REMARK    3  A    between atoms: N_12  and  C_13
REMARK    4  A    between atoms: C_17  and  C_18
REMARK                            x       y       z     vdW  Elec       q    Type
REMARK                         _______ _______ _______ _____ _____    ______ ____
ROOT
ATOM      1  C   UNL     1       5.553   3.703 -22.876  0.00  0.00    +0.120 A 
ATOM      2  C   UNL     1       6.081   2.738 -22.244  0.00  0.00    +0.046 A 
ATOM      3  C   UNL     1       5.327   1.853 -21.743  0.00  0.00    +0.008 A 
ATOM      4  C   UNL     1       3.871   1.973 -21.909  0.00  0.00    -0.038 A 
ATOM      5  C   UNL     1       3.500   2.807 -22.450  0.00  0.00    -0.033 A 
ATOM      6  C   UNL     1       2.612   3.069 -22.669  0.00  0.00    +0.016 C 
ATOM      7  C   UNL     1       4.246   2.773 -22.382  0.00  0.00    +0.063 C 
ATOM      8  C   UNL     1       4.636   1.577 -21.615  0.00  0.00    +0.132 C 
ATOM      9  N   UNL     1       3.802   0.850 -21.218  0.00  0.00    +0.236 N 
ATOM     10  H   UNL     1       2.883   0.450 -21.028  0.00  0.00    +0.203 HD
ATOM     11  C   UNL     1       2.261   1.111 -21.477  0.00  0.00    +0.073 C 
ATOM     12  C   UNL     1       4.756   0.005 -20.634  0.00  0.00    +0.190 C 
ATOM     13  C   UNL     1       2.165   4.055 -23.309  0.00  0.00    +0.086 C 
ATOM     14  C   UNL     1       0.885   4.192 -23.474  0.00  0.00    +0.134 C 
ATOM     15  O   UNL     1       0.432   5.200 -24.128  0.00  0.00    -0.297 OA
ATOM     16  C   UNL     1       0.042   3.309 -22.980  0.00  0.00    +0.078 C 
ATOM     17  C   UNL     1       0.459   2.277 -22.314  0.00  0.00    +0.002 C 
ATOM     18  C   UNL     1      -0.379   1.425 -21.839  0.00  0.00    +0.008 C 
ATOM     19  C   UNL     1       1.696   2.112 -22.134  0.00  0.00    +0.052 C 
ATOM     20  C   UNL     1       3.121   1.081 -21.404  0.00  0.00    +0.090 C 
ATOM     21  C   UNL     1       4.266   3.750 -22.987  0.00  0.00    +0.050 A 
ENDROOT
BRANCH   1  23
ATOM     22  C   UNL     1       7.271   5.274 -23.561  0.00  0.00    +0.277 C 
ATOM     23  O   UNL     1       6.099   4.810 -23.528  0.00  0.00    -0.495 OA
ENDBRANCH   1  23
TORSDOF 1
ENDMDL
