MODEL 1
REMARK VINA RESULT:    -8.564      0.000      0.000
REMARK INTER + INTRA:         -12.086
REMARK INTER:                 -12.277
REMARK INTRA:                   0.191
REMARK UNBOUND:                 0.234
REMARK  Name = ZINC000001615112
REMARK  14 active torsions:
REMARK  status: ('A' for Active; 'I' for Inactive)
REMARK    1  A    between atoms: C_1  and  O_2
REMARK    2  A    between atoms: O_2  and  C_3
REMARK    3  A    between atoms: C_5  and  C_6
REMARK    4  A    between atoms: C_11  and  O_12
REMARK    5  A    between atoms: C_13  and  O_14
REMARK    6  A    between atoms: O_14  and  C_15
REMARK    7  A    between atoms: C_16  and  O_17
REMARK    8  A    between atoms: O_17  and  C_18
REMARK    9  A    between atoms: C_19  and  O_20
REMARK   10  A    between atoms: O_20  and  C_21
REMARK   11  A    between atoms: C_25  and  O_26
REMARK   12  A    between atoms: O_26  and  C_27
REMARK   13  A    between atoms: C_28  and  O_29
REMARK   14  A    between atoms: O_29  and  C_30
REMARK                            x       y       z     vdW  Elec       q    Type
REMARK                         _______ _______ _______ _____ _____    ______ ____
ROOT
ATOM      1  C   UNL     1       0.865   2.299 -22.463  0.00  0.00    +0.140 A 
ATOM      2  C   UNL     1       1.365   1.211 -21.955  0.00  0.00    +0.098 A 
ATOM      3  C   UNL     1       2.652   1.086 -21.824  0.00  0.00    +0.197 A 
ATOM      4  C   UNL     1       3.440   2.049 -22.200  0.00  0.00    +0.113 A 
ATOM      5  C   UNL     1       4.728   1.924 -22.068  0.00  0.00    +0.177 A 
ATOM      6  C   UNL     1       5.515   2.887 -22.444  0.00  0.00    +0.208 A 
ATOM      7  C   UNL     1       5.016   3.975 -22.951  0.00  0.00    +0.211 A 
ATOM      8  C   UNL     1       3.729   4.100 -23.083  0.00  0.00    +0.209 A 
ATOM      9  C   UNL     1       2.940   3.137 -22.707  0.00  0.00    +0.188 A 
ATOM     10  O   UNL     1       3.151  -0.002 -21.316  0.00  0.00    -0.287 OA
ATOM     11  O   UNL     1       1.653   3.262 -22.838  0.00  0.00    -0.451 OA
ENDROOT
BRANCH   1  14
ATOM     12  C   UNL     1      -2.465   2.632 -21.671  0.00  0.00    +0.166 A 
ATOM     13  C   UNL     1      -1.178   2.507 -21.540  0.00  0.00    +0.061 A 
ATOM     14  C   UNL     1      -0.422   2.424 -22.594  0.00  0.00    +0.025 A 
ATOM     15  C   UNL     1      -0.953   2.467 -23.780  0.00  0.00    +0.061 A 
ATOM     16  C   UNL     1      -2.241   2.592 -23.911  0.00  0.00    +0.166 A 
ATOM     17  C   UNL     1      -2.997   2.675 -22.857  0.00  0.00    +0.204 A 
BRANCH  16  18
ATOM     18  O   UNL     1      -2.772   2.634 -25.097  0.00  0.00    -0.491 OA
ATOM     19  C   UNL     1      -2.268   3.412 -26.008  0.00  0.00    +0.277 C 
ENDBRANCH  16  18
BRANCH  12  21
ATOM     20  C   UNL     1      -3.148   3.760 -19.846  0.00  0.00    +0.277 C 
ATOM     21  O   UNL     1      -3.220   2.715 -20.616  0.00  0.00    -0.491 OA
ENDBRANCH  12  21
BRANCH  17  22
ATOM     22  O   UNL     1      -4.283   2.800 -22.987  0.00  0.00    -0.488 OA
ATOM     23  C   UNL     1      -4.799   3.956 -23.281  0.00  0.00    +0.277 C 
ENDBRANCH  17  22
ENDBRANCH   1  14
BRANCH   8  24
ATOM     24  O   UNL     1       3.230   5.188 -23.590  0.00  0.00    -0.488 OA
ATOM     25  C   UNL     1       2.687   6.078 -22.813  0.00  0.00    +0.277 C 
ENDBRANCH   8  24
BRANCH   7  26
ATOM     26  O   UNL     1       5.804   4.937 -23.327  0.00  0.00    -0.488 OA
ATOM     27  C   UNL     1       6.233   5.804 -22.459  0.00  0.00    +0.277 C 
ENDBRANCH   7  26
BRANCH   6  28
ATOM     28  O   UNL     1       6.803   2.761 -22.313  0.00  0.00    -0.488 OA
ATOM     29  C   UNL     1       7.554   2.617 -23.364  0.00  0.00    +0.277 C 
ENDBRANCH   6  28
BRANCH   5  30
ATOM     30  O   UNL     1       5.227   0.836 -21.561  0.00  0.00    -0.503 OA
ATOM     31  H   UNL     1       4.772   0.387 -20.875  0.00  0.00    +0.292 HD
ENDBRANCH   5  30
TORSDOF 8
ENDMDL
MODEL 2
REMARK VINA RESULT:    -8.545      0.023      2.150
REMARK INTER + INTRA:         -12.058
REMARK INTER:                 -12.246
REMARK INTRA:                   0.188
REMARK UNBOUND:                 0.234
REMARK  Name = ZINC000001615112
REMARK  14 active torsions:
REMARK  status: ('A' for Active; 'I' for Inactive)
REMARK    1  A    between atoms: C_1  and  O_2
REMARK    2  A    between atoms: O_2  and  C_3
REMARK    3  A    between atoms: C_5  and  C_6
REMARK    4  A    between atoms: C_11  and  O_12
REMARK    5  A    between atoms: C_13  and  O_14
REMARK    6  A    between atoms: O_14  and  C_15
REMARK    7  A    between atoms: C_16  and  O_17
REMARK    8  A    between atoms: O_17  and  C_18
REMARK    9  A    between atoms: C_19  and  O_20
REMARK   10  A    between atoms: O_20  and  C_21
REMARK   11  A    between atoms: C_25  and  O_26
REMARK   12  A    between atoms: O_26  and  C_27
REMARK   13  A    between atoms: C_28  and  O_29
REMARK   14  A    between atoms: O_29  and  C_30
REMARK                            x       y       z     vdW  Elec       q    Type
REMARK                         _______ _______ _______ _____ _____    ______ ____
ROOT
ATOM      1  C   UNL     1       0.868   2.296 -22.455  0.00  0.00    +0.140 A 
ATOM      2  C   UNL     1       1.370   1.211 -21.945  0.00  0.00    +0.098 A 
ATOM      3  C   UNL     1       2.658   1.091 -21.814  0.00  0.00    +0.197 A 
ATOM      4  C   UNL     1       3.442   2.055 -22.192  0.00  0.00    +0.113 A 
ATOM      5  C   UNL     1       4.731   1.935 -22.061  0.00  0.00    +0.177 A 
ATOM      6  C   UNL     1       5.516   2.899 -22.440  0.00  0.00    +0.208 A 
ATOM      7  C   UNL     1       5.013   3.984 -22.950  0.00  0.00    +0.211 A 
ATOM      8  C   UNL     1       3.725   4.105 -23.081  0.00  0.00    +0.209 A 
ATOM      9  C   UNL     1       2.940   3.140 -22.702  0.00  0.00    +0.188 A 
ATOM     10  O   UNL     1       3.160   0.006 -21.304  0.00  0.00    -0.287 OA
ATOM     11  O   UNL     1       1.652   3.261 -22.834  0.00  0.00    -0.451 OA
ENDROOT
BRANCH   1  14
ATOM     12  C   UNL     1      -2.238   2.596 -23.904  0.00  0.00    +0.166 A 
ATOM     13  C   UNL     1      -0.950   2.475 -23.772  0.00  0.00    +0.061 A 
ATOM     14  C   UNL     1      -0.420   2.417 -22.586  0.00  0.00    +0.025 A 
ATOM     15  C   UNL     1      -1.178   2.479 -21.532  0.00  0.00    +0.061 A 
ATOM     16  C   UNL     1      -2.466   2.600 -21.664  0.00  0.00    +0.166 A 
ATOM     17  C   UNL     1      -2.996   2.658 -22.850  0.00  0.00    +0.204 A 
BRANCH  16  18
ATOM     18  O   UNL     1      -3.225   2.662 -20.610  0.00  0.00    -0.491 OA
ATOM     19  C   UNL     1      -3.168   3.700 -19.829  0.00  0.00    +0.277 C 
ENDBRANCH  16  18
BRANCH  12  21
ATOM     20  C   UNL     1      -2.251   3.435 -25.994  0.00  0.00    +0.277 C 
ATOM     21  O   UNL     1      -2.766   2.654 -25.090  0.00  0.00    -0.491 OA
ENDBRANCH  12  21
BRANCH  17  22
ATOM     22  O   UNL     1      -4.283   2.779 -22.982  0.00  0.00    -0.488 OA
ATOM     23  C   UNL     1      -4.803   3.936 -23.265  0.00  0.00    +0.277 C 
ENDBRANCH  17  22
ENDBRANCH   1  14
BRANCH   8  24
ATOM     24  O   UNL     1       3.223   5.190 -23.591  0.00  0.00    -0.488 OA
ATOM     25  C   UNL     1       2.668   6.075 -22.817  0.00  0.00    +0.277 C 
ENDBRANCH   8  24
BRANCH   7  26
ATOM     26  O   UNL     1       5.798   4.948 -23.328  0.00  0.00    -0.488 OA
ATOM     27  C   UNL     1       6.212   5.828 -22.465  0.00  0.00    +0.277 C 
ENDBRANCH   7  26
BRANCH   6  28
ATOM     28  O   UNL     1       6.803   2.778 -22.308  0.00  0.00    -0.488 OA
ATOM     29  C   UNL     1       7.553   2.621 -23.359  0.00  0.00    +0.277 C 
ENDBRANCH   6  28
BRANCH   5  30
ATOM     30  O   UNL     1       5.234   0.850 -21.551  0.00  0.00    -0.503 OA
ATOM     31  H   UNL     1       5.325   0.767 -20.622  0.00  0.00    +0.292 HD
ENDBRANCH   5  30
TORSDOF 8
ENDMDL
MODEL 3
REMARK VINA RESULT:    -8.514      1.188      2.914
REMARK INTER + INTRA:         -12.013
REMARK INTER:                 -12.095
REMARK INTRA:                   0.082
REMARK UNBOUND:                 0.234
REMARK  Name = ZINC000001615112
REMARK  14 active torsions:
REMARK  status: ('A' for Active; 'I' for Inactive)
REMARK    1  A    between atoms: C_1  and  O_2
REMARK    2  A    between atoms: O_2  and  C_3
REMARK    3  A    between atoms: C_5  and  C_6
REMARK    4  A    between atoms: C_11  and  O_12
REMARK    5  A    between atoms: C_13  and  O_14
REMARK    6  A    between atoms: O_14  and  C_15
REMARK    7  A    between atoms: C_16  and  O_17
REMARK    8  A    between atoms: O_17  and  C_18
REMARK    9  A    between atoms: C_19  and  O_20
REMARK   10  A    between atoms: O_20  and  C_21
REMARK   11  A    between atoms: C_25  and  O_26
REMARK   12  A    between atoms: O_26  and  C_27
REMARK   13  A    between atoms: C_28  and  O_29
REMARK   14  A    between atoms: O_29  and  C_30
REMARK                            x       y       z     vdW  Elec       q    Type
REMARK                         _______ _______ _______ _____ _____    ______ ____
ROOT
ATOM      1  C   UNL     1       0.385   3.779 -23.096  0.00  0.00    +0.140 A 
ATOM      2  C   UNL     1       0.906   4.949 -23.316  0.00  0.00    +0.098 A 
ATOM      3  C   UNL     1       2.193   5.114 -23.230  0.00  0.00    +0.197 A 
ATOM      4  C   UNL     1       2.958   4.109 -22.924  0.00  0.00    +0.113 A 
ATOM      5  C   UNL     1       4.245   4.274 -22.838  0.00  0.00    +0.177 A 
ATOM      6  C   UNL     1       5.010   3.269 -22.532  0.00  0.00    +0.208 A 
ATOM      7  C   UNL     1       4.488   2.098 -22.311  0.00  0.00    +0.211 A 
ATOM      8  C   UNL     1       3.202   1.933 -22.397  0.00  0.00    +0.209 A 
ATOM      9  C   UNL     1       2.436   2.939 -22.704  0.00  0.00    +0.188 A 
ATOM     10  O   UNL     1       2.714   6.284 -23.451  0.00  0.00    -0.287 OA
ATOM     11  O   UNL     1       1.150   2.774 -22.789  0.00  0.00    -0.451 OA
ENDROOT
BRANCH   1  14
ATOM     12  C   UNL     1      -2.942   3.661 -22.229  0.00  0.00    +0.166 A 
ATOM     13  C   UNL     1      -1.655   3.826 -22.143  0.00  0.00    +0.061 A 
ATOM     14  C   UNL     1      -0.902   3.614 -23.181  0.00  0.00    +0.025 A 
ATOM     15  C   UNL     1      -1.435   3.236 -24.305  0.00  0.00    +0.061 A 
ATOM     16  C   UNL     1      -2.723   3.071 -24.390  0.00  0.00    +0.166 A 
ATOM     17  C   UNL     1      -3.475   3.283 -23.352  0.00  0.00    +0.204 A 
BRANCH  16  18
ATOM     18  O   UNL     1      -3.256   2.693 -25.514  0.00  0.00    -0.491 OA
ATOM     19  C   UNL     1      -3.055   3.386 -26.595  0.00  0.00    +0.277 C 
ENDBRANCH  16  18
BRANCH  12  21
ATOM     20  C   UNL     1      -3.217   3.690 -19.994  0.00  0.00    +0.277 C 
ATOM     21  O   UNL     1      -3.694   3.874 -21.190  0.00  0.00    -0.491 OA
ENDBRANCH  12  21
BRANCH  17  22
ATOM     22  O   UNL     1      -4.761   3.119 -23.437  0.00  0.00    -0.488 OA
ATOM     23  C   UNL     1      -5.507   4.059 -23.938  0.00  0.00    +0.277 C 
ENDBRANCH  17  22
ENDBRANCH   1  14
BRANCH   8  24
ATOM     24  O   UNL     1       2.680   0.763 -22.177  0.00  0.00    -0.488 OA
ATOM     25  C   UNL     1       2.400  -0.022 -23.175  0.00  0.00    +0.277 C 
ENDBRANCH   8  24
BRANCH   7  26
ATOM     26  O   UNL     1       5.253   1.093 -22.005  0.00  0.00    -0.488 OA
ATOM     27  C   UNL     1       5.225   0.596 -20.804  0.00  0.00    +0.277 C 
ENDBRANCH   7  26
BRANCH   6  28
ATOM     28  O   UNL     1       6.296   3.434 -22.446  0.00  0.00    -0.488 OA
ATOM     29  C   UNL     1       6.822   3.892 -21.349  0.00  0.00    +0.277 C 
ENDBRANCH   6  28
BRANCH   5  30
ATOM     30  O   UNL     1       4.766   5.444 -23.059  0.00  0.00    -0.503 OA
ATOM     31  H   UNL     1       4.731   5.819 -23.917  0.00  0.00    +0.292 HD
ENDBRANCH   5  30
TORSDOF 8
ENDMDL
MODEL 4
REMARK VINA RESULT:    -8.492      1.180      3.630
REMARK INTER + INTRA:         -11.982
REMARK INTER:                 -12.064
REMARK INTRA:                   0.082
REMARK UNBOUND:                 0.234
REMARK  Name = ZINC000001615112
REMARK  14 active torsions:
REMARK  status: ('A' for Active; 'I' for Inactive)
REMARK    1  A    between atoms: C_1  and  O_2
REMARK    2  A    between atoms: O_2  and  C_3
REMARK    3  A    between atoms: C_5  and  C_6
REMARK    4  A    between atoms: C_11  and  O_12
REMARK    5  A    between atoms: C_13  and  O_14
REMARK    6  A    between atoms: O_14  and  C_15
REMARK    7  A    between atoms: C_16  and  O_17
REMARK    8  A    between atoms: O_17  and  C_18
REMARK    9  A    between atoms: C_19  and  O_20
REMARK   10  A    between atoms: O_20  and  C_21
REMARK   11  A    between atoms: C_25  and  O_26
REMARK   12  A    between atoms: O_26  and  C_27
REMARK   13  A    between atoms: C_28  and  O_29
REMARK   14  A    between atoms: O_29  and  C_30
REMARK                            x       y       z     vdW  Elec       q    Type
REMARK                         _______ _______ _______ _____ _____    ______ ____
ROOT
ATOM      1  C   UNL     1       0.370   3.794 -23.084  0.00  0.00    +0.140 A 
ATOM      2  C   UNL     1       0.885   4.966 -23.311  0.00  0.00    +0.098 A 
ATOM      3  C   UNL     1       2.172   5.135 -23.241  0.00  0.00    +0.197 A 
ATOM      4  C   UNL     1       2.943   4.132 -22.944  0.00  0.00    +0.113 A 
ATOM      5  C   UNL     1       4.231   4.301 -22.874  0.00  0.00    +0.177 A 
ATOM      6  C   UNL     1       5.003   3.298 -22.577  0.00  0.00    +0.208 A 
ATOM      7  C   UNL     1       4.488   2.126 -22.349  0.00  0.00    +0.211 A 
ATOM      8  C   UNL     1       3.201   1.957 -22.419  0.00  0.00    +0.209 A 
ATOM      9  C   UNL     1       2.428   2.960 -22.717  0.00  0.00    +0.188 A 
ATOM     10  O   UNL     1       2.687   6.306 -23.469  0.00  0.00    -0.287 OA
ATOM     11  O   UNL     1       1.141   2.791 -22.787  0.00  0.00    -0.451 OA
ENDROOT
BRANCH   1  14
ATOM     12  C   UNL     1      -2.753   3.100 -24.347  0.00  0.00    +0.166 A 
ATOM     13  C   UNL     1      -1.466   3.269 -24.278  0.00  0.00    +0.061 A 
ATOM     14  C   UNL     1      -0.917   3.625 -23.154  0.00  0.00    +0.025 A 
ATOM     15  C   UNL     1      -1.656   3.812 -22.100  0.00  0.00    +0.061 A 
ATOM     16  C   UNL     1      -2.943   3.642 -22.171  0.00  0.00    +0.166 A 
ATOM     17  C   UNL     1      -3.492   3.287 -23.294  0.00  0.00    +0.204 A 
BRANCH  16  18
ATOM     18  O   UNL     1      -3.682   3.829 -21.117  0.00  0.00    -0.491 OA
ATOM     19  C   UNL     1      -3.193   3.608 -19.933  0.00  0.00    +0.277 C 
ENDBRANCH  16  18
BRANCH  12  21
ATOM     20  C   UNL     1      -3.035   3.402 -26.561  0.00  0.00    +0.277 C 
ATOM     21  O   UNL     1      -3.301   2.744 -25.472  0.00  0.00    -0.491 OA
ENDBRANCH  12  21
BRANCH  17  22
ATOM     22  O   UNL     1      -4.778   3.117 -23.365  0.00  0.00    -0.488 OA
ATOM     23  C   UNL     1      -5.529   4.042 -23.886  0.00  0.00    +0.277 C 
ENDBRANCH  17  22
ENDBRANCH   1  14
BRANCH   8  24
ATOM     24  O   UNL     1       2.685   0.785 -22.192  0.00  0.00    -0.488 OA
ATOM     25  C   UNL     1       2.406  -0.006 -23.186  0.00  0.00    +0.277 C 
ENDBRANCH   8  24
BRANCH   7  26
ATOM     26  O   UNL     1       5.259   1.123 -22.052  0.00  0.00    -0.488 OA
ATOM     27  C   UNL     1       5.257   0.635 -20.847  0.00  0.00    +0.277 C 
ENDBRANCH   7  26
BRANCH   6  28
ATOM     28  O   UNL     1       6.290   3.467 -22.507  0.00  0.00    -0.488 OA
ATOM     29  C   UNL     1       6.828   3.925 -21.416  0.00  0.00    +0.277 C 
ENDBRANCH   6  28
BRANCH   5  30
ATOM     30  O   UNL     1       4.746   5.472 -23.101  0.00  0.00    -0.503 OA
ATOM     31  H   UNL     1       5.573   5.702 -22.724  0.00  0.00    +0.292 HD
ENDBRANCH   5  30
TORSDOF 8
ENDMDL
MODEL 5
REMARK VINA RESULT:    -7.749      1.673      2.352
REMARK INTER + INTRA:         -10.913
REMARK INTER:                 -11.329
REMARK INTRA:                   0.416
REMARK UNBOUND:                 0.234
REMARK  Name = ZINC000001615112
REMARK  14 active torsions:
REMARK  status: ('A' for Active; 'I' for Inactive)
REMARK    1  A    between atoms: C_1  and  O_2
REMARK    2  A    between atoms: O_2  and  C_3
REMARK    3  A    between atoms: C_5  and  C_6
REMARK    4  A    between atoms: C_11  and  O_12
REMARK    5  A    between atoms: C_13  and  O_14
REMARK    6  A    between atoms: O_14  and  C_15
REMARK    7  A    between atoms: C_16  and  O_17
REMARK    8  A    between atoms: O_17  and  C_18
REMARK    9  A    between atoms: C_19  and  O_20
REMARK   10  A    between atoms: O_20  and  C_21
REMARK   11  A    between atoms: C_25  and  O_26
REMARK   12  A    between atoms: O_26  and  C_27
REMARK   13  A    between atoms: C_28  and  O_29
REMARK   14  A    between atoms: O_29  and  C_30
REMARK                            x       y       z     vdW  Elec       q    Type
REMARK                         _______ _______ _______ _____ _____    ______ ____
ROOT
ATOM      1  C   UNL     1      -0.697   2.699 -22.619  0.00  0.00    +0.140 A 
ATOM      2  C   UNL     1      -0.620   2.148 -21.444  0.00  0.00    +0.098 A 
ATOM      3  C   UNL     1       0.533   1.771 -20.977  0.00  0.00    +0.197 A 
ATOM      4  C   UNL     1       1.609   1.944 -21.685  0.00  0.00    +0.113 A 
ATOM      5  C   UNL     1       2.763   1.567 -21.218  0.00  0.00    +0.177 A 
ATOM      6  C   UNL     1       3.839   1.740 -21.926  0.00  0.00    +0.208 A 
ATOM      7  C   UNL     1       3.762   2.291 -23.101  0.00  0.00    +0.211 A 
ATOM      8  C   UNL     1       2.609   2.668 -23.568  0.00  0.00    +0.209 A 
ATOM      9  C   UNL     1       1.532   2.495 -22.860  0.00  0.00    +0.188 A 
ATOM     10  O   UNL     1       0.610   1.220 -19.802  0.00  0.00    -0.287 OA
ATOM     11  O   UNL     1       0.379   2.872 -23.327  0.00  0.00    -0.451 OA
ENDROOT
BRANCH   1  14
ATOM     12  C   UNL     1      -4.050   3.447 -22.783  0.00  0.00    +0.166 A 
ATOM     13  C   UNL     1      -2.897   3.070 -22.316  0.00  0.00    +0.061 A 
ATOM     14  C   UNL     1      -1.849   3.076 -23.086  0.00  0.00    +0.025 A 
ATOM     15  C   UNL     1      -1.955   3.461 -24.323  0.00  0.00    +0.061 A 
ATOM     16  C   UNL     1      -3.109   3.838 -24.790  0.00  0.00    +0.166 A 
ATOM     17  C   UNL     1      -4.156   3.831 -24.020  0.00  0.00    +0.204 A 
BRANCH  16  18
ATOM     18  O   UNL     1      -3.215   4.223 -26.028  0.00  0.00    -0.491 OA
ATOM     19  C   UNL     1      -2.920   3.402 -26.991  0.00  0.00    +0.277 C 
ENDBRANCH  16  18
BRANCH  12  21
ATOM     20  C   UNL     1      -5.348   2.403 -21.267  0.00  0.00    +0.277 C 
ATOM     21  O   UNL     1      -5.097   3.440 -22.011  0.00  0.00    -0.491 OA
ENDBRANCH  12  21
BRANCH  17  22
ATOM     22  O   UNL     1      -5.309   4.209 -24.486  0.00  0.00    -0.488 OA
ATOM     23  C   UNL     1      -5.974   3.430 -25.287  0.00  0.00    +0.277 C 
ENDBRANCH  17  22
ENDBRANCH   1  14
BRANCH   8  24
ATOM     24  O   UNL     1       2.532   3.219 -24.743  0.00  0.00    -0.488 OA
ATOM     25  C   UNL     1       1.855   2.639 -25.690  0.00  0.00    +0.277 C 
ENDBRANCH   8  24
BRANCH   7  26
ATOM     26  O   UNL     1       4.838   2.464 -23.809  0.00  0.00    -0.488 OA
ATOM     27  C   UNL     1       5.509   3.573 -23.713  0.00  0.00    +0.277 C 
ENDBRANCH   7  26
BRANCH   6  28
ATOM     28  O   UNL     1       4.991   1.363 -21.459  0.00  0.00    -0.488 OA
ATOM     29  C   UNL     1       5.639   2.126 -20.630  0.00  0.00    +0.277 C 
ENDBRANCH   6  28
BRANCH   5  30
ATOM     30  O   UNL     1       2.839   1.016 -20.043  0.00  0.00    -0.503 OA
ATOM     31  H   UNL     1       2.148   0.460 -19.740  0.00  0.00    +0.292 HD
ENDBRANCH   5  30
TORSDOF 8
ENDMDL
MODEL 6
REMARK VINA RESULT:    -7.700      1.564      7.816
REMARK INTER + INTRA:         -10.843
REMARK INTER:                 -10.964
REMARK INTRA:                   0.121
REMARK UNBOUND:                 0.234
REMARK  Name = ZINC000001615112
REMARK  14 active torsions:
REMARK  status: ('A' for Active; 'I' for Inactive)
REMARK    1  A    between atoms: C_1  and  O_2
REMARK    2  A    between atoms: O_2  and  C_3
REMARK    3  A    between atoms: C_5  and  C_6
REMARK    4  A    between atoms: C_11  and  O_12
REMARK    5  A    between atoms: C_13  and  O_14
REMARK    6  A    between atoms: O_14  and  C_15
REMARK    7  A    between atoms: C_16  and  O_17
REMARK    8  A    between atoms: O_17  and  C_18
REMARK    9  A    between atoms: C_19  and  O_20
REMARK   10  A    between atoms: O_20  and  C_21
REMARK   11  A    between atoms: C_25  and  O_26
REMARK   12  A    between atoms: O_26  and  C_27
REMARK   13  A    between atoms: C_28  and  O_29
REMARK   14  A    between atoms: O_29  and  C_30
REMARK                            x       y       z     vdW  Elec       q    Type
REMARK                         _______ _______ _______ _____ _____    ______ ____
ROOT
ATOM      1  C   UNL     1       2.049   3.517 -23.638  0.00  0.00    +0.140 A 
ATOM      2  C   UNL     1       1.829   3.811 -24.885  0.00  0.00    +0.098 A 
ATOM      3  C   UNL     1       0.619   3.772 -25.359  0.00  0.00    +0.197 A 
ATOM      4  C   UNL     1      -0.371   3.439 -24.585  0.00  0.00    +0.113 A 
ATOM      5  C   UNL     1      -1.582   3.400 -25.058  0.00  0.00    +0.177 A 
ATOM      6  C   UNL     1      -2.572   3.067 -24.285  0.00  0.00    +0.208 A 
ATOM      7  C   UNL     1      -2.352   2.773 -23.038  0.00  0.00    +0.211 A 
ATOM      8  C   UNL     1      -1.142   2.812 -22.564  0.00  0.00    +0.209 A 
ATOM      9  C   UNL     1      -0.151   3.145 -23.338  0.00  0.00    +0.188 A 
ATOM     10  O   UNL     1       0.399   4.066 -26.606  0.00  0.00    -0.287 OA
ATOM     11  O   UNL     1       1.059   3.184 -22.865  0.00  0.00    -0.451 OA
ENDROOT
BRANCH   1  14
ATOM     12  C   UNL     1       5.132   4.714 -22.694  0.00  0.00    +0.166 A 
ATOM     13  C   UNL     1       3.922   4.675 -23.167  0.00  0.00    +0.061 A 
ATOM     14  C   UNL     1       3.259   3.556 -23.165  0.00  0.00    +0.025 A 
ATOM     15  C   UNL     1       3.806   2.477 -22.689  0.00  0.00    +0.061 A 
ATOM     16  C   UNL     1       5.016   2.517 -22.215  0.00  0.00    +0.166 A 
ATOM     17  C   UNL     1       5.679   3.635 -22.218  0.00  0.00    +0.204 A 
BRANCH  16  18
ATOM     18  O   UNL     1       5.563   1.438 -21.739  0.00  0.00    -0.491 OA
ATOM     19  C   UNL     1       4.881   0.652 -20.961  0.00  0.00    +0.277 C 
ENDBRANCH  16  18
BRANCH  12  21
ATOM     20  C   UNL     1       5.325   6.867 -22.064  0.00  0.00    +0.277 C 
ATOM     21  O   UNL     1       5.795   5.832 -22.697  0.00  0.00    -0.491 OA
ENDBRANCH  12  21
BRANCH  17  22
ATOM     22  O   UNL     1       6.889   3.674 -21.745  0.00  0.00    -0.488 OA
ATOM     23  C   UNL     1       7.105   4.132 -20.547  0.00  0.00    +0.277 C 
ENDBRANCH  17  22
ENDBRANCH   1  14
BRANCH   8  24
ATOM     24  O   UNL     1      -0.922   2.518 -21.317  0.00  0.00    -0.488 OA
ATOM     25  C   UNL     1      -0.364   1.385 -21.005  0.00  0.00    +0.277 C 
ENDBRANCH   8  24
BRANCH   7  26
ATOM     26  O   UNL     1      -3.341   2.440 -22.264  0.00  0.00    -0.488 OA
ATOM     27  C   UNL     1      -3.861   3.317 -21.458  0.00  0.00    +0.277 C 
ENDBRANCH   7  26
BRANCH   6  28
ATOM     28  O   UNL     1      -3.782   3.028 -24.758  0.00  0.00    -0.488 OA
ATOM     29  C   UNL     1      -4.469   4.125 -24.880  0.00  0.00    +0.277 C 
ENDBRANCH   6  28
BRANCH   5  30
ATOM     30  O   UNL     1      -1.802   3.694 -26.305  0.00  0.00    -0.503 OA
ATOM     31  H   UNL     1      -1.123   3.580 -26.941  0.00  0.00    +0.292 HD
ENDBRANCH   5  30
TORSDOF 8
ENDMDL
MODEL 7
REMARK VINA RESULT:    -7.692      1.563      7.766
REMARK INTER + INTRA:         -10.831
REMARK INTER:                 -11.018
REMARK INTRA:                   0.187
REMARK UNBOUND:                 0.234
REMARK  Name = ZINC000001615112
REMARK  14 active torsions:
REMARK  status: ('A' for Active; 'I' for Inactive)
REMARK    1  A    between atoms: C_1  and  O_2
REMARK    2  A    between atoms: O_2  and  C_3
REMARK    3  A    between atoms: C_5  and  C_6
REMARK    4  A    between atoms: C_11  and  O_12
REMARK    5  A    between atoms: C_13  and  O_14
REMARK    6  A    between atoms: O_14  and  C_15
REMARK    7  A    between atoms: C_16  and  O_17
REMARK    8  A    between atoms: O_17  and  C_18
REMARK    9  A    between atoms: C_19  and  O_20
REMARK   10  A    between atoms: O_20  and  C_21
REMARK   11  A    between atoms: C_25  and  O_26
REMARK   12  A    between atoms: O_26  and  C_27
REMARK   13  A    between atoms: C_28  and  O_29
REMARK   14  A    between atoms: O_29  and  C_30
REMARK                            x       y       z     vdW  Elec       q    Type
REMARK                         _______ _______ _______ _____ _____    ______ ____
ROOT
ATOM      1  C   UNL     1       2.057   3.500 -23.623  0.00  0.00    +0.140 A 
ATOM      2  C   UNL     1       1.842   3.805 -24.868  0.00  0.00    +0.098 A 
ATOM      3  C   UNL     1       0.633   3.780 -25.344  0.00  0.00    +0.197 A 
ATOM      4  C   UNL     1      -0.361   3.450 -24.575  0.00  0.00    +0.113 A 
ATOM      5  C   UNL     1      -1.572   3.425 -25.051  0.00  0.00    +0.177 A 
ATOM      6  C   UNL     1      -2.566   3.096 -24.282  0.00  0.00    +0.208 A 
ATOM      7  C   UNL     1      -2.351   2.791 -23.036  0.00  0.00    +0.211 A 
ATOM      8  C   UNL     1      -1.142   2.816 -22.560  0.00  0.00    +0.209 A 
ATOM      9  C   UNL     1      -0.147   3.145 -23.330  0.00  0.00    +0.188 A 
ATOM     10  O   UNL     1       0.418   4.085 -26.590  0.00  0.00    -0.287 OA
ATOM     11  O   UNL     1       1.063   3.170 -22.854  0.00  0.00    -0.451 OA
ENDROOT
BRANCH   1  14
ATOM     12  C   UNL     1       5.008   2.464 -22.191  0.00  0.00    +0.166 A 
ATOM     13  C   UNL     1       3.799   2.440 -22.667  0.00  0.00    +0.061 A 
ATOM     14  C   UNL     1       3.266   3.525 -23.147  0.00  0.00    +0.025 A 
ATOM     15  C   UNL     1       3.944   4.634 -23.150  0.00  0.00    +0.061 A 
ATOM     16  C   UNL     1       5.154   4.658 -22.674  0.00  0.00    +0.166 A 
ATOM     17  C   UNL     1       5.685   3.574 -22.194  0.00  0.00    +0.204 A 
BRANCH  16  18
ATOM     18  O   UNL     1       5.831   5.768 -22.678  0.00  0.00    -0.491 OA
ATOM     19  C   UNL     1       5.358   6.821 -22.080  0.00  0.00    +0.277 C 
ENDBRANCH  16  18
BRANCH  12  21
ATOM     20  C   UNL     1       4.852   0.619 -20.909  0.00  0.00    +0.277 C 
ATOM     21  O   UNL     1       5.539   1.379 -21.711  0.00  0.00    -0.491 OA
ENDBRANCH  12  21
BRANCH  17  22
ATOM     22  O   UNL     1       6.894   3.598 -21.718  0.00  0.00    -0.488 OA
ATOM     23  C   UNL     1       7.121   4.103 -20.542  0.00  0.00    +0.277 C 
ENDBRANCH  17  22
ENDBRANCH   1  14
BRANCH   8  24
ATOM     24  O   UNL     1      -0.927   2.511 -21.315  0.00  0.00    -0.488 OA
ATOM     25  C   UNL     1      -0.332   1.395 -21.012  0.00  0.00    +0.277 C 
ENDBRANCH   8  24
BRANCH   7  26
ATOM     26  O   UNL     1      -3.345   2.461 -22.267  0.00  0.00    -0.488 OA
ATOM     27  C   UNL     1      -3.877   3.346 -21.476  0.00  0.00    +0.277 C 
ENDBRANCH   7  26
BRANCH   6  28
ATOM     28  O   UNL     1      -3.775   3.071 -24.758  0.00  0.00    -0.488 OA
ATOM     29  C   UNL     1      -4.442   4.178 -24.900  0.00  0.00    +0.277 C 
ENDBRANCH   6  28
BRANCH   5  30
ATOM     30  O   UNL     1      -1.786   3.730 -26.296  0.00  0.00    -0.503 OA
ATOM     31  H   UNL     1      -2.573   3.446 -26.720  0.00  0.00    +0.292 HD
ENDBRANCH   5  30
TORSDOF 8
ENDMDL
MODEL 8
REMARK VINA RESULT:    -7.645      1.544      2.955
REMARK INTER + INTRA:         -10.763
REMARK INTER:                 -11.200
REMARK INTRA:                   0.437
REMARK UNBOUND:                 0.234
REMARK  Name = ZINC000001615112
REMARK  14 active torsions:
REMARK  status: ('A' for Active; 'I' for Inactive)
REMARK    1  A    between atoms: C_1  and  O_2
REMARK    2  A    between atoms: O_2  and  C_3
REMARK    3  A    between atoms: C_5  and  C_6
REMARK    4  A    between atoms: C_11  and  O_12
REMARK    5  A    between atoms: C_13  and  O_14
REMARK    6  A    between atoms: O_14  and  C_15
REMARK    7  A    between atoms: C_16  and  O_17
REMARK    8  A    between atoms: O_17  and  C_18
REMARK    9  A    between atoms: C_19  and  O_20
REMARK   10  A    between atoms: O_20  and  C_21
REMARK   11  A    between atoms: C_25  and  O_26
REMARK   12  A    between atoms: O_26  and  C_27
REMARK   13  A    between atoms: C_28  and  O_29
REMARK   14  A    between atoms: O_29  and  C_30
REMARK                            x       y       z     vdW  Elec       q    Type
REMARK                         _______ _______ _______ _____ _____    ______ ____
ROOT
ATOM      1  C   UNL     1      -0.617   2.481 -22.564  0.00  0.00    +0.140 A 
ATOM      2  C   UNL     1      -0.482   1.948 -21.387  0.00  0.00    +0.098 A 
ATOM      3  C   UNL     1       0.703   1.670 -20.930  0.00  0.00    +0.197 A 
ATOM      4  C   UNL     1       1.753   1.925 -21.651  0.00  0.00    +0.113 A 
ATOM      5  C   UNL     1       2.939   1.647 -21.195  0.00  0.00    +0.177 A 
ATOM      6  C   UNL     1       3.989   1.903 -21.916  0.00  0.00    +0.208 A 
ATOM      7  C   UNL     1       3.855   2.437 -23.094  0.00  0.00    +0.211 A 
ATOM      8  C   UNL     1       2.670   2.715 -23.550  0.00  0.00    +0.209 A 
ATOM      9  C   UNL     1       1.619   2.459 -22.829  0.00  0.00    +0.188 A 
ATOM     10  O   UNL     1       0.837   1.136 -19.752  0.00  0.00    -0.287 OA
ATOM     11  O   UNL     1       0.434   2.737 -23.286  0.00  0.00    -0.451 OA
ENDROOT
BRANCH   1  14
ATOM     12  C   UNL     1      -3.209   3.027 -24.759  0.00  0.00    +0.166 A 
ATOM     13  C   UNL     1      -2.024   2.749 -24.302  0.00  0.00    +0.061 A 
ATOM     14  C   UNL     1      -1.801   2.760 -23.021  0.00  0.00    +0.025 A 
ATOM     15  C   UNL     1      -2.764   3.049 -22.197  0.00  0.00    +0.061 A 
ATOM     16  C   UNL     1      -3.950   3.327 -22.654  0.00  0.00    +0.166 A 
ATOM     17  C   UNL     1      -4.172   3.316 -23.935  0.00  0.00    +0.204 A 
BRANCH  16  18
ATOM     18  O   UNL     1      -4.913   3.616 -21.830  0.00  0.00    -0.491 OA
ATOM     19  C   UNL     1      -5.689   2.675 -21.382  0.00  0.00    +0.277 C 
ENDBRANCH  16  18
BRANCH  12  21
ATOM     20  C   UNL     1      -2.617   3.635 -26.845  0.00  0.00    +0.277 C 
ATOM     21  O   UNL     1      -3.430   3.015 -26.040  0.00  0.00    -0.491 OA
ENDBRANCH  12  21
BRANCH  17  22
ATOM     22  O   UNL     1      -5.356   3.594 -24.392  0.00  0.00    -0.488 OA
ATOM     23  C   UNL     1      -5.627   4.794 -24.811  0.00  0.00    +0.277 C 
ENDBRANCH  17  22
ENDBRANCH   1  14
BRANCH   8  24
ATOM     24  O   UNL     1       2.536   3.249 -24.728  0.00  0.00    -0.488 OA
ATOM     25  C   UNL     1       1.879   4.363 -24.866  0.00  0.00    +0.277 C 
ENDBRANCH   8  24
BRANCH   7  26
ATOM     26  O   UNL     1       4.905   2.693 -23.815  0.00  0.00    -0.488 OA
ATOM     27  C   UNL     1       5.602   3.767 -23.592  0.00  0.00    +0.277 C 
ENDBRANCH   7  26
BRANCH   6  28
ATOM     28  O   UNL     1       5.174   1.625 -21.460  0.00  0.00    -0.488 OA
ATOM     29  C   UNL     1       5.672   0.435 -21.623  0.00  0.00    +0.277 C 
ENDBRANCH   6  28
BRANCH   5  30
ATOM     30  O   UNL     1       3.073   1.113 -20.017  0.00  0.00    -0.503 OA
ATOM     31  H   UNL     1       2.825   0.221 -19.877  0.00  0.00    +0.292 HD
ENDBRANCH   5  30
TORSDOF 8
ENDMDL
MODEL 9
REMARK VINA RESULT:    -6.907      1.873      7.860
REMARK INTER + INTRA:          -9.702
REMARK INTER:                  -9.935
REMARK INTRA:                   0.234
REMARK UNBOUND:                 0.234
REMARK  Name = ZINC000001615112
REMARK  14 active torsions:
REMARK  status: ('A' for Active; 'I' for Inactive)
REMARK    1  A    between atoms: C_1  and  O_2
REMARK    2  A    between atoms: O_2  and  C_3
REMARK    3  A    between atoms: C_5  and  C_6
REMARK    4  A    between atoms: C_11  and  O_12
REMARK    5  A    between atoms: C_13  and  O_14
REMARK    6  A    between atoms: O_14  and  C_15
REMARK    7  A    between atoms: C_16  and  O_17
REMARK    8  A    between atoms: O_17  and  C_18
REMARK    9  A    between atoms: C_19  and  O_20
REMARK   10  A    between atoms: O_20  and  C_21
REMARK   11  A    between atoms: C_25  and  O_26
REMARK   12  A    between atoms: O_26  and  C_27
REMARK   13  A    between atoms: C_28  and  O_29
REMARK   14  A    between atoms: O_29  and  C_30
REMARK                            x       y       z     vdW  Elec       q    Type
REMARK                         _______ _______ _______ _____ _____    ______ ____
ROOT
ATOM      1  C   UNL     1       4.089   3.452 -22.773  0.00  0.00    +0.140 A 
ATOM      2  C   UNL     1       3.991   2.512 -21.880  0.00  0.00    +0.098 A 
ATOM      3  C   UNL     1       2.830   1.997 -21.604  0.00  0.00    +0.197 A 
ATOM      4  C   UNL     1       1.767   2.422 -22.221  0.00  0.00    +0.113 A 
ATOM      5  C   UNL     1       0.606   1.906 -21.945  0.00  0.00    +0.177 A 
ATOM      6  C   UNL     1      -0.457   2.331 -22.562  0.00  0.00    +0.208 A 
ATOM      7  C   UNL     1      -0.358   3.271 -23.454  0.00  0.00    +0.211 A 
ATOM      8  C   UNL     1       0.803   3.786 -23.730  0.00  0.00    +0.209 A 
ATOM      9  C   UNL     1       1.866   3.362 -23.114  0.00  0.00    +0.188 A 
ATOM     10  O   UNL     1       2.731   1.057 -20.712  0.00  0.00    -0.287 OA
ATOM     11  O   UNL     1       3.027   3.877 -23.390  0.00  0.00    -0.451 OA
ENDROOT
BRANCH   1  14
ATOM     12  C   UNL     1       7.211   3.877 -24.152  0.00  0.00    +0.166 A 
ATOM     13  C   UNL     1       6.050   3.362 -23.876  0.00  0.00    +0.061 A 
ATOM     14  C   UNL     1       5.250   3.967 -23.049  0.00  0.00    +0.025 A 
ATOM     15  C   UNL     1       5.612   5.088 -22.498  0.00  0.00    +0.061 A 
ATOM     16  C   UNL     1       6.774   5.603 -22.775  0.00  0.00    +0.166 A 
ATOM     17  C   UNL     1       7.573   4.998 -23.601  0.00  0.00    +0.204 A 
BRANCH  16  18
ATOM     18  O   UNL     1       7.135   6.724 -22.224  0.00  0.00    -0.491 OA
ATOM     19  C   UNL     1       6.400   7.258 -21.294  0.00  0.00    +0.277 C 
ENDBRANCH  16  18
BRANCH  12  21
ATOM     20  C   UNL     1       8.940   2.484 -24.526  0.00  0.00    +0.277 C 
ATOM     21  O   UNL     1       8.010   3.271 -24.980  0.00  0.00    -0.491 OA
ENDBRANCH  12  21
BRANCH  17  22
ATOM     22  O   UNL     1       8.734   5.512 -23.878  0.00  0.00    -0.488 OA
ATOM     23  C   UNL     1       8.859   6.343 -24.870  0.00  0.00    +0.277 C 
ENDBRANCH  17  22
ENDBRANCH   1  14
BRANCH   8  24
ATOM     24  O   UNL     1       0.901   4.726 -24.623  0.00  0.00    -0.488 OA
ATOM     25  C   UNL     1       1.215   4.428 -25.849  0.00  0.00    +0.277 C 
ENDBRANCH   8  24
BRANCH   7  26
ATOM     26  O   UNL     1      -1.420   3.696 -24.071  0.00  0.00    -0.488 OA
ATOM     27  C   UNL     1      -1.933   2.997 -25.040  0.00  0.00    +0.277 C 
ENDBRANCH   7  26
BRANCH   6  28
ATOM     28  O   UNL     1      -1.618   1.816 -22.286  0.00  0.00    -0.488 OA
ATOM     29  C   UNL     1      -2.386   2.379 -21.402  0.00  0.00    +0.277 C 
ENDBRANCH   6  28
BRANCH   5  30
ATOM     30  O   UNL     1       0.507   0.966 -21.053  0.00  0.00    -0.503 OA
ATOM     31  H   UNL     1       1.149   0.285 -21.017  0.00  0.00    +0.292 HD
ENDBRANCH   5  30
TORSDOF 8
ENDMDL
