MODEL 1
REMARK VINA RESULT:    -5.921      0.000      0.000
REMARK INTER + INTRA:          -6.567
REMARK INTER:                  -6.397
REMARK INTRA:                  -0.170
REMARK UNBOUND:                -0.126
REMARK  Name = ZINC000000001712
REMARK  4 active torsions:
REMARK  status: ('A' for Active; 'I' for Inactive)
REMARK    1  A    between atoms: C_1  and  O_2
REMARK    2  A    between atoms: O_2  and  C_3
REMARK    3  A    between atoms: C_3  and  C_5
REMARK    4  A    between atoms: C_8  and  O_9
REMARK                            x       y       z     vdW  Elec       q    Type
REMARK                         _______ _______ _______ _____ _____    ______ ____
ROOT
ATOM      1  C   UNL     1      -1.422   2.984 -23.016  0.00  0.00    +0.059 A 
ATOM      2  C   UNL     1      -2.473   3.550 -24.278  0.00  0.00    +0.018 A 
ATOM      3  C   UNL     1      -4.179   3.721 -23.988  0.00  0.00    +0.046 A 
ATOM      4  C   UNL     1      -4.828   3.383 -22.397  0.00  0.00    +0.117 A 
ATOM      5  C   UNL     1      -3.776   2.904 -21.110  0.00  0.00    +0.046 A 
ATOM      6  C   UNL     1      -2.077   2.656 -21.427  0.00  0.00    +0.018 A 
ENDROOT
BRANCH   1   7
ATOM      7  C   UNL     1       0.039   2.860 -23.249  0.00  0.00    +0.339 C 
ATOM      8  O   UNL     1       0.577   1.821 -23.625  0.00  0.00    -0.245 OA
BRANCH   7  10
ATOM      9  C   UNL     1       1.306   4.662 -24.140  0.00  0.00    +0.280 C 
ATOM     10  O   UNL     1       0.673   4.017 -23.050  0.00  0.00    -0.464 OA
ENDBRANCH   7  10
ENDBRANCH   1   7
BRANCH   4  11
ATOM     11  O   UNL     1      -6.161   3.548 -22.166  0.00  0.00    -0.507 OA
ATOM     12  H   UNL     1      -6.704   3.946 -22.818  0.00  0.00    +0.292 HD
ENDBRANCH   4  11
TORSDOF 3
ENDMDL
MODEL 2
REMARK VINA RESULT:    -5.919      0.076      1.820
REMARK INTER + INTRA:          -6.564
REMARK INTER:                  -6.380
REMARK INTRA:                  -0.184
REMARK UNBOUND:                -0.126
REMARK  Name = ZINC000000001712
REMARK  4 active torsions:
REMARK  status: ('A' for Active; 'I' for Inactive)
REMARK    1  A    between atoms: C_1  and  O_2
REMARK    2  A    between atoms: O_2  and  C_3
REMARK    3  A    between atoms: C_3  and  C_5
REMARK    4  A    between atoms: C_8  and  O_9
REMARK                            x       y       z     vdW  Elec       q    Type
REMARK                         _______ _______ _______ _____ _____    ______ ____
ROOT
ATOM      1  C   UNL     1      -1.453   3.057 -22.950  0.00  0.00    +0.059 A 
ATOM      2  C   UNL     1      -2.110   2.672 -21.389  0.00  0.00    +0.018 A 
ATOM      3  C   UNL     1      -3.810   2.869 -21.081  0.00  0.00    +0.046 A 
ATOM      4  C   UNL     1      -4.872   3.395 -22.371  0.00  0.00    +0.117 A 
ATOM      5  C   UNL     1      -4.240   3.695 -23.953  0.00  0.00    +0.046 A 
ATOM      6  C   UNL     1      -2.520   3.574 -24.235  0.00  0.00    +0.018 A 
ENDROOT
BRANCH   1   7
ATOM      7  C   UNL     1      -0.006   2.867 -23.227  0.00  0.00    +0.339 C 
ATOM      8  O   UNL     1       0.476   1.801 -23.604  0.00  0.00    -0.245 OA
BRANCH   7  10
ATOM      9  C   UNL     1       1.198   4.672 -24.197  0.00  0.00    +0.280 C 
ATOM     10  O   UNL     1       0.682   3.998 -23.063  0.00  0.00    -0.464 OA
ENDBRANCH   7  10
ENDBRANCH   1   7
BRANCH   4  11
ATOM     11  O   UNL     1      -6.208   3.518 -22.133  0.00  0.00    -0.507 OA
ATOM     12  H   UNL     1      -6.712   4.149 -22.608  0.00  0.00    +0.292 HD
ENDBRANCH   4  11
TORSDOF 3
ENDMDL
MODEL 3
REMARK VINA RESULT:    -5.765      1.854      5.331
REMARK INTER + INTRA:          -6.397
REMARK INTER:                  -6.214
REMARK INTRA:                  -0.183
REMARK UNBOUND:                -0.126
REMARK  Name = ZINC000000001712
REMARK  4 active torsions:
REMARK  status: ('A' for Active; 'I' for Inactive)
REMARK    1  A    between atoms: C_1  and  O_2
REMARK    2  A    between atoms: O_2  and  C_3
REMARK    3  A    between atoms: C_3  and  C_5
REMARK    4  A    between atoms: C_8  and  O_9
REMARK                            x       y       z     vdW  Elec       q    Type
REMARK                         _______ _______ _______ _____ _____    ______ ____
ROOT
ATOM      1  C   UNL     1      -1.772   3.227 -21.657  0.00  0.00    +0.059 A 
ATOM      2  C   UNL     1      -0.592   1.960 -21.516  0.00  0.00    +0.018 A 
ATOM      3  C   UNL     1       0.896   2.044 -22.412  0.00  0.00    +0.046 A 
ATOM      4  C   UNL     1       1.232   3.443 -23.409  0.00  0.00    +0.117 A 
ATOM      5  C   UNL     1       0.102   4.750 -23.486  0.00  0.00    +0.046 A 
ATOM      6  C   UNL     1      -1.426   4.625 -22.649  0.00  0.00    +0.018 A 
ENDROOT
BRANCH   1   7
ATOM      7  C   UNL     1      -3.033   3.173 -20.876  0.00  0.00    +0.339 C 
ATOM      8  O   UNL     1      -3.160   3.677 -19.762  0.00  0.00    -0.245 OA
BRANCH   7  10
ATOM      9  C   UNL     1      -5.098   3.319 -22.045  0.00  0.00    +0.280 C 
ATOM     10  O   UNL     1      -4.008   2.561 -21.550  0.00  0.00    -0.464 OA
ENDBRANCH   7  10
ENDBRANCH   1   7
BRANCH   4  11
ATOM     11  O   UNL     1       2.413   3.518 -24.086  0.00  0.00    -0.507 OA
ATOM     12  H   UNL     1       3.209   3.254 -23.669  0.00  0.00    +0.292 HD
ENDBRANCH   4  11
TORSDOF 3
ENDMDL
MODEL 4
REMARK VINA RESULT:    -5.580      1.827      5.225
REMARK INTER + INTRA:          -6.196
REMARK INTER:                  -6.062
REMARK INTRA:                  -0.134
REMARK UNBOUND:                -0.126
REMARK  Name = ZINC000000001712
REMARK  4 active torsions:
REMARK  status: ('A' for Active; 'I' for Inactive)
REMARK    1  A    between atoms: C_1  and  O_2
REMARK    2  A    between atoms: O_2  and  C_3
REMARK    3  A    between atoms: C_3  and  C_5
REMARK    4  A    between atoms: C_8  and  O_9
REMARK                            x       y       z     vdW  Elec       q    Type
REMARK                         _______ _______ _______ _____ _____    ______ ____
ROOT
ATOM      1  C   UNL     1      -1.644   3.628 -22.026  0.00  0.00    +0.059 A 
ATOM      2  C   UNL     1      -1.015   4.978 -22.921  0.00  0.00    +0.018 A 
ATOM      3  C   UNL     1       0.605   4.935 -23.549  0.00  0.00    +0.046 A 
ATOM      4  C   UNL     1       1.583   3.498 -23.334  0.00  0.00    +0.117 A 
ATOM      5  C   UNL     1       0.934   2.116 -22.521  0.00  0.00    +0.046 A 
ATOM      6  C   UNL     1      -0.664   2.194 -21.822  0.00  0.00    +0.018 A 
ENDROOT
BRANCH   1   7
ATOM      7  C   UNL     1      -3.035   3.649 -21.508  0.00  0.00    +0.339 C 
ATOM      8  O   UNL     1      -3.326   3.994 -20.365  0.00  0.00    -0.245 OA
BRANCH   7  10
ATOM      9  C   UNL     1      -5.300   3.290 -22.134  0.00  0.00    +0.280 C 
ATOM     10  O   UNL     1      -3.918   3.298 -22.445  0.00  0.00    -0.464 OA
ENDBRANCH   7  10
ENDBRANCH   1   7
BRANCH   4  11
ATOM     11  O   UNL     1       2.842   3.457 -23.855  0.00  0.00    -0.507 OA
ATOM     12  H   UNL     1       3.561   3.816 -23.372  0.00  0.00    +0.292 HD
ENDBRANCH   4  11
TORSDOF 3
ENDMDL
MODEL 5
REMARK VINA RESULT:    -5.426      1.503      2.743
REMARK INTER + INTRA:          -6.028
REMARK INTER:                  -5.904
REMARK INTRA:                  -0.124
REMARK UNBOUND:                -0.126
REMARK  Name = ZINC000000001712
REMARK  4 active torsions:
REMARK  status: ('A' for Active; 'I' for Inactive)
REMARK    1  A    between atoms: C_1  and  O_2
REMARK    2  A    between atoms: O_2  and  C_3
REMARK    3  A    between atoms: C_3  and  C_5
REMARK    4  A    between atoms: C_8  and  O_9
REMARK                            x       y       z     vdW  Elec       q    Type
REMARK                         _______ _______ _______ _____ _____    ______ ____
ROOT
ATOM      1  C   UNL     1      -0.140   2.896 -22.962  0.00  0.00    +0.059 A 
ATOM      2  C   UNL     1      -1.035   2.310 -21.594  0.00  0.00    +0.018 A 
ATOM      3  C   UNL     1      -2.750   2.578 -21.486  0.00  0.00    +0.046 A 
ATOM      4  C   UNL     1      -3.586   3.387 -22.795  0.00  0.00    +0.117 A 
ATOM      5  C   UNL     1      -2.717   3.896 -24.202  0.00  0.00    +0.046 A 
ATOM      6  C   UNL     1      -0.983   3.697 -24.269  0.00  0.00    +0.018 A 
ENDROOT
BRANCH   1   7
ATOM      7  C   UNL     1       1.320   2.648 -23.071  0.00  0.00    +0.339 C 
ATOM      8  O   UNL     1       2.170   3.498 -22.817  0.00  0.00    -0.245 OA
BRANCH   7  10
ATOM      9  C   UNL     1       2.594   0.669 -22.746  0.00  0.00    +0.280 C 
ATOM     10  O   UNL     1       1.583   1.390 -23.428  0.00  0.00    -0.464 OA
ENDBRANCH   7  10
ENDBRANCH   1   7
BRANCH   4  11
ATOM     11  O   UNL     1      -4.935   3.568 -22.721  0.00  0.00    -0.507 OA
ATOM     12  H   UNL     1      -5.462   2.969 -22.230  0.00  0.00    +0.292 HD
ENDBRANCH   4  11
TORSDOF 3
ENDMDL
MODEL 6
REMARK VINA RESULT:    -5.211      2.313      5.776
REMARK INTER + INTRA:          -5.794
REMARK INTER:                  -5.645
REMARK INTRA:                  -0.150
REMARK UNBOUND:                -0.126
REMARK  Name = ZINC000000001712
REMARK  4 active torsions:
REMARK  status: ('A' for Active; 'I' for Inactive)
REMARK    1  A    between atoms: C_1  and  O_2
REMARK    2  A    between atoms: O_2  and  C_3
REMARK    3  A    between atoms: C_3  and  C_5
REMARK    4  A    between atoms: C_8  and  O_9
REMARK                            x       y       z     vdW  Elec       q    Type
REMARK                         _______ _______ _______ _____ _____    ______ ____
ROOT
ATOM      1  C   UNL     1      -0.429   2.987 -23.129  0.00  0.00    +0.059 A 
ATOM      2  C   UNL     1       0.548   1.979 -22.105  0.00  0.00    +0.018 A 
ATOM      3  C   UNL     1       2.048   1.325 -22.692  0.00  0.00    +0.046 A 
ATOM      4  C   UNL     1       2.606   1.737 -24.299  0.00  0.00    +0.117 A 
ATOM      5  C   UNL     1       1.683   2.811 -25.294  0.00  0.00    +0.046 A 
ATOM      6  C   UNL     1       0.138   3.400 -24.730  0.00  0.00    +0.018 A 
ENDROOT
BRANCH   1   7
ATOM      7  C   UNL     1      -1.699   3.569 -22.625  0.00  0.00    +0.339 C 
ATOM      8  O   UNL     1      -1.758   4.634 -22.014  0.00  0.00    -0.245 OA
BRANCH   7  10
ATOM      9  C   UNL     1      -4.003   3.063 -22.337  0.00  0.00    +0.280 C 
ATOM     10  O   UNL     1      -2.753   2.822 -22.958  0.00  0.00    -0.464 OA
ENDBRANCH   7  10
ENDBRANCH   1   7
BRANCH   4  11
ATOM     11  O   UNL     1       3.797   1.246 -24.744  0.00  0.00    -0.507 OA
ATOM     12  H   UNL     1       3.815   0.625 -25.445  0.00  0.00    +0.292 HD
ENDBRANCH   4  11
TORSDOF 3
ENDMDL
MODEL 7
REMARK VINA RESULT:    -5.187      2.287      3.106
REMARK INTER + INTRA:          -5.768
REMARK INTER:                  -5.624
REMARK INTRA:                  -0.144
REMARK UNBOUND:                -0.126
REMARK  Name = ZINC000000001712
REMARK  4 active torsions:
REMARK  status: ('A' for Active; 'I' for Inactive)
REMARK    1  A    between atoms: C_1  and  O_2
REMARK    2  A    between atoms: O_2  and  C_3
REMARK    3  A    between atoms: C_3  and  C_5
REMARK    4  A    between atoms: C_8  and  O_9
REMARK                            x       y       z     vdW  Elec       q    Type
REMARK                         _______ _______ _______ _____ _____    ______ ____
ROOT
ATOM      1  C   UNL     1       1.352   2.954 -22.855  0.00  0.00    +0.059 A 
ATOM      2  C   UNL     1       0.317   4.206 -23.470  0.00  0.00    +0.018 A 
ATOM      3  C   UNL     1      -1.402   4.126 -23.218  0.00  0.00    +0.046 A 
ATOM      4  C   UNL     1      -2.083   2.810 -22.284  0.00  0.00    +0.117 A 
ATOM      5  C   UNL     1      -1.051   1.606 -21.593  0.00  0.00    +0.046 A 
ATOM      6  C   UNL     1       0.665   1.647 -21.917  0.00  0.00    +0.018 A 
ENDROOT
BRANCH   1   7
ATOM      7  C   UNL     1       2.822   3.029 -23.046  0.00  0.00    +0.339 C 
ATOM      8  O   UNL     1       3.599   3.402 -22.170  0.00  0.00    -0.245 OA
BRANCH   7  10
ATOM      9  C   UNL     1       3.186   1.211 -24.533  0.00  0.00    +0.280 C 
ATOM     10  O   UNL     1       3.188   2.600 -24.255  0.00  0.00    -0.464 OA
ENDBRANCH   7  10
ENDBRANCH   1   7
BRANCH   4  11
ATOM     11  O   UNL     1      -3.427   2.768 -22.063  0.00  0.00    -0.507 OA
ATOM     12  H   UNL     1      -3.767   2.283 -21.337  0.00  0.00    +0.292 HD
ENDBRANCH   4  11
TORSDOF 3
ENDMDL
MODEL 8
REMARK VINA RESULT:    -5.173      2.536      4.912
REMARK INTER + INTRA:          -5.753
REMARK INTER:                  -5.614
REMARK INTRA:                  -0.139
REMARK UNBOUND:                -0.126
REMARK  Name = ZINC000000001712
REMARK  4 active torsions:
REMARK  status: ('A' for Active; 'I' for Inactive)
REMARK    1  A    between atoms: C_1  and  O_2
REMARK    2  A    between atoms: O_2  and  C_3
REMARK    3  A    between atoms: C_3  and  C_5
REMARK    4  A    between atoms: C_8  and  O_9
REMARK                            x       y       z     vdW  Elec       q    Type
REMARK                         _______ _______ _______ _____ _____    ______ ____
ROOT
ATOM      1  C   UNL     1      -1.049   3.038 -23.604  0.00  0.00    +0.059 A 
ATOM      2  C   UNL     1       0.518   2.899 -24.341  0.00  0.00    +0.018 A 
ATOM      3  C   UNL     1       1.814   2.102 -23.500  0.00  0.00    +0.046 A 
ATOM      4  C   UNL     1       1.519   1.380 -21.932  0.00  0.00    +0.117 A 
ATOM      5  C   UNL     1      -0.061   1.437 -21.230  0.00  0.00    +0.046 A 
ATOM      6  C   UNL     1      -1.339   2.309 -22.041  0.00  0.00    +0.018 A 
ENDROOT
BRANCH   1   7
ATOM      7  C   UNL     1      -2.167   3.696 -24.327  0.00  0.00    +0.339 C 
ATOM      8  O   UNL     1      -2.472   4.875 -24.170  0.00  0.00    -0.245 OA
BRANCH   7  10
ATOM      9  C   UNL     1      -3.264   3.374 -26.411  0.00  0.00    +0.280 C 
ATOM     10  O   UNL     1      -2.755   2.865 -25.190  0.00  0.00    -0.464 OA
ENDBRANCH   7  10
ENDBRANCH   1   7
BRANCH   4  11
ATOM     11  O   UNL     1       2.531   0.730 -21.290  0.00  0.00    -0.507 OA
ATOM     12  H   UNL     1       2.649   0.843 -20.368  0.00  0.00    +0.292 HD
ENDBRANCH   4  11
TORSDOF 3
ENDMDL
MODEL 9
REMARK VINA RESULT:    -5.129      1.764      3.023
REMARK INTER + INTRA:          -5.705
REMARK INTER:                  -5.579
REMARK INTRA:                  -0.126
REMARK UNBOUND:                -0.126
REMARK  Name = ZINC000000001712
REMARK  4 active torsions:
REMARK  status: ('A' for Active; 'I' for Inactive)
REMARK    1  A    between atoms: C_1  and  O_2
REMARK    2  A    between atoms: O_2  and  C_3
REMARK    3  A    between atoms: C_3  and  C_5
REMARK    4  A    between atoms: C_8  and  O_9
REMARK                            x       y       z     vdW  Elec       q    Type
REMARK                         _______ _______ _______ _____ _____    ______ ____
ROOT
ATOM      1  C   UNL     1      -1.050   3.753 -23.850  0.00  0.00    +0.059 A 
ATOM      2  C   UNL     1      -2.472   3.763 -22.853  0.00  0.00    +0.018 A 
ATOM      3  C   UNL     1      -4.051   3.664 -23.577  0.00  0.00    +0.046 A 
ATOM      4  C   UNL     1      -4.202   3.490 -25.312  0.00  0.00    +0.117 A 
ATOM      5  C   UNL     1      -2.788   3.390 -26.305  0.00  0.00    +0.046 A 
ATOM      6  C   UNL     1      -1.208   3.571 -25.582  0.00  0.00    +0.018 A 
ENDROOT
BRANCH   1   7
ATOM      7  C   UNL     1       0.301   3.811 -23.237  0.00  0.00    +0.339 C 
ATOM      8  O   UNL     1       0.850   4.861 -22.911  0.00  0.00    -0.245 OA
BRANCH   7  10
ATOM      9  C   UNL     1       0.405   1.837 -21.919  0.00  0.00    +0.280 C 
ATOM     10  O   UNL     1       0.811   2.594 -23.045  0.00  0.00    -0.464 OA
ENDBRANCH   7  10
ENDBRANCH   1   7
BRANCH   4  11
ATOM     11  O   UNL     1      -5.440   3.383 -25.872  0.00  0.00    -0.507 OA
ATOM     12  H   UNL     1      -5.805   4.106 -26.343  0.00  0.00    +0.292 HD
ENDBRANCH   4  11
TORSDOF 3
ENDMDL
