MODEL 1
REMARK VINA RESULT:   -11.262      0.000      0.000
REMARK INTER + INTRA:         -12.026
REMARK INTER:                 -11.892
REMARK INTRA:                  -0.134
REMARK UNBOUND:                -0.105
REMARK  Name = COc1ccc2c3c1O[C@@H]1C=CC=C4[C@H](C2)N(C)CC[C@]431                    ZINC000100393591
REMARK  3 active torsions:
REMARK  status: ('A' for Active; 'I' for Inactive)
REMARK    1  A    between atoms: C_1  and  O_2
REMARK    2  A    between atoms: O_2  and  C_3
REMARK    3  A    between atoms: N_17  and  C_18
REMARK                            x       y       z     vdW  Elec       q    Type
REMARK                         _______ _______ _______ _____ _____    ______ ____
ROOT
ATOM      1  C   UNL     1       0.492   2.641 -23.176  0.00  0.00    +0.162 A 
ATOM      2  C   UNL     1       0.419   2.066 -22.055  0.00  0.00    +0.050 A 
ATOM      3  C   UNL     1      -0.680   1.946 -21.477  0.00  0.00    +0.008 A 
ATOM      4  C   UNL     1      -1.713   2.399 -22.011  0.00  0.00    -0.034 A 
ATOM      5  C   UNL     1      -1.665   2.974 -23.126  0.00  0.00    +0.016 A 
ATOM      6  C   UNL     1      -2.699   3.423 -23.653  0.00  0.00    +0.071 C 
ATOM      7  C   UNL     1      -3.809   3.975 -24.353  0.00  0.00    +0.071 C 
ATOM      8  C   UNL     1      -5.062   3.854 -23.725  0.00  0.00    +0.133 C 
ATOM      9  N   UNL     1      -5.105   3.208 -22.477  0.00  0.00    +0.239 N 
ATOM     10  H   UNL     1      -5.988   3.095 -21.979  0.00  0.00    +0.204 HD
ATOM     11  C   UNL     1      -6.176   3.061 -21.854  0.00  0.00    +0.191 C 
ATOM     12  C   UNL     1      -3.872   2.730 -21.957  0.00  0.00    +0.096 C 
ATOM     13  C   UNL     1      -3.801   3.306 -23.078  0.00  0.00    -0.007 C 
ATOM     14  C   UNL     1      -4.848   3.761 -23.614  0.00  0.00    +0.006 C 
ATOM     15  C   UNL     1      -4.782   4.330 -24.722  0.00  0.00    -0.000 C 
ATOM     16  C   UNL     1      -3.676   4.455 -25.313  0.00  0.00    +0.018 C 
ATOM     17  C   UNL     1      -2.641   4.003 -24.779  0.00  0.00    +0.212 C 
ATOM     18  O   UNL     1      -1.150   3.811 -24.887  0.00  0.00    -0.480 OA
ATOM     19  C   UNL     1      -2.837   2.279 -21.425  0.00  0.00    +0.094 C 
ATOM     20  C   UNL     1      -0.558   3.097 -23.712  0.00  0.00    +0.167 A 
ENDROOT
BRANCH   1  22
ATOM     21  C   UNL     1       2.428   3.588 -23.338  0.00  0.00    +0.277 C 
ATOM     22  O   UNL     1       1.593   2.758 -23.751  0.00  0.00    -0.491 OA
ENDBRANCH   1  22
TORSDOF 1
ENDMDL
MODEL 2
REMARK VINA RESULT:   -10.718      2.115      5.343
REMARK INTER + INTRA:         -11.450
REMARK INTER:                 -11.345
REMARK INTRA:                  -0.105
REMARK UNBOUND:                -0.105
REMARK  Name = COc1ccc2c3c1O[C@@H]1C=CC=C4[C@H](C2)N(C)CC[C@]431                    ZINC000100393591
REMARK  3 active torsions:
REMARK  status: ('A' for Active; 'I' for Inactive)
REMARK    1  A    between atoms: C_1  and  O_2
REMARK    2  A    between atoms: O_2  and  C_3
REMARK    3  A    between atoms: N_17  and  C_18
REMARK                            x       y       z     vdW  Elec       q    Type
REMARK                         _______ _______ _______ _____ _____    ______ ____
ROOT
ATOM      1  C   UNL     1      -4.733   3.673 -22.901  0.00  0.00    +0.162 A 
ATOM      2  C   UNL     1      -4.849   4.121 -24.075  0.00  0.00    +0.050 A 
ATOM      3  C   UNL     1      -3.874   4.116 -24.853  0.00  0.00    +0.008 A 
ATOM      4  C   UNL     1      -2.776   3.664 -24.467  0.00  0.00    -0.034 A 
ATOM      5  C   UNL     1      -2.637   3.213 -23.304  0.00  0.00    +0.016 A 
ATOM      6  C   UNL     1      -1.539   2.764 -22.925  0.00  0.00    +0.071 C 
ATOM      7  C   UNL     1      -0.340   2.226 -22.380  0.00  0.00    +0.071 C 
ATOM      8  C   UNL     1       0.778   2.207 -23.235  0.00  0.00    +0.133 C 
ATOM      9  N   UNL     1       0.611   2.715 -24.536  0.00  0.00    +0.239 N 
ATOM     10  H   UNL     1       1.389   2.724 -25.196  0.00  0.00    +0.204 HD
ATOM     11  C   UNL     1       1.551   2.734 -25.355  0.00  0.00    +0.191 C 
ATOM     12  C   UNL     1      -0.680   3.205 -24.874  0.00  0.00    +0.096 C 
ATOM     13  C   UNL     1      -0.561   2.756 -23.700  0.00  0.00    -0.007 C 
ATOM     14  C   UNL     1       0.551   2.301 -23.315  0.00  0.00    +0.006 C 
ATOM     15  C   UNL     1       0.671   1.856 -22.156  0.00  0.00    -0.000 C 
ATOM     16  C   UNL     1      -0.308   1.858 -21.364  0.00  0.00    +0.018 C 
ATOM     17  C   UNL     1      -1.407   2.310 -21.749  0.00  0.00    +0.212 C 
ATOM     18  O   UNL     1      -2.844   2.598 -21.395  0.00  0.00    -0.480 OA
ATOM     19  C   UNL     1      -1.778   3.656 -25.257  0.00  0.00    +0.094 C 
ATOM     20  C   UNL     1      -3.619   3.217 -22.516  0.00  0.00    +0.167 A 
ENDROOT
BRANCH   1  22
ATOM     21  C   UNL     1      -6.226   2.605 -21.760  0.00  0.00    +0.277 C 
ATOM     22  O   UNL     1      -5.710   3.680 -22.126  0.00  0.00    -0.491 OA
ENDBRANCH   1  22
TORSDOF 1
ENDMDL
MODEL 3
REMARK VINA RESULT:   -10.678      1.392      2.691
REMARK INTER + INTRA:         -11.408
REMARK INTER:                 -11.286
REMARK INTRA:                  -0.121
REMARK UNBOUND:                -0.105
REMARK  Name = COc1ccc2c3c1O[C@@H]1C=CC=C4[C@H](C2)N(C)CC[C@]431                    ZINC000100393591
REMARK  3 active torsions:
REMARK  status: ('A' for Active; 'I' for Inactive)
REMARK    1  A    between atoms: C_1  and  O_2
REMARK    2  A    between atoms: O_2  and  C_3
REMARK    3  A    between atoms: N_17  and  C_18
REMARK                            x       y       z     vdW  Elec       q    Type
REMARK                         _______ _______ _______ _____ _____    ______ ____
ROOT
ATOM      1  C   UNL     1       0.909   2.267 -22.569  0.00  0.00    +0.162 A 
ATOM      2  C   UNL     1       1.179   2.599 -23.757  0.00  0.00    +0.050 A 
ATOM      3  C   UNL     1       0.285   3.025 -24.513  0.00  0.00    +0.008 A 
ATOM      4  C   UNL     1      -0.887   3.124 -24.093  0.00  0.00    -0.034 A 
ATOM      5  C   UNL     1      -1.180   2.800 -22.916  0.00  0.00    +0.016 A 
ATOM      6  C   UNL     1      -2.350   2.902 -22.503  0.00  0.00    +0.071 C 
ATOM      7  C   UNL     1      -3.646   2.973 -21.919  0.00  0.00    +0.071 C 
ATOM      8  C   UNL     1      -4.676   3.450 -22.750  0.00  0.00    +0.133 C 
ATOM      9  N   UNL     1      -4.337   3.810 -24.067  0.00  0.00    +0.239 N 
ATOM     10  H   UNL     1      -5.047   4.161 -24.709  0.00  0.00    +0.204 HD
ATOM     11  C   UNL     1      -5.192   4.241 -24.866  0.00  0.00    +0.191 C 
ATOM     12  C   UNL     1      -2.976   3.658 -24.444  0.00  0.00    +0.096 C 
ATOM     13  C   UNL     1      -3.249   3.327 -23.257  0.00  0.00    -0.007 C 
ATOM     14  C   UNL     1      -4.434   3.429 -22.837  0.00  0.00    +0.006 C 
ATOM     15  C   UNL     1      -4.707   3.103 -21.665  0.00  0.00    -0.000 C 
ATOM     16  C   UNL     1      -3.809   2.672 -20.893  0.00  0.00    +0.018 C 
ATOM     17  C   UNL     1      -2.637   2.573 -21.313  0.00  0.00    +0.212 C 
ATOM     18  O   UNL     1      -1.216   2.184 -20.997  0.00  0.00    -0.480 OA
ATOM     19  C   UNL     1      -1.804   3.558 -24.861  0.00  0.00    +0.094 C 
ATOM     20  C   UNL     1      -0.279   2.370 -22.149  0.00  0.00    +0.167 A 
ENDROOT
BRANCH   1  22
ATOM     21  C   UNL     1       2.489   0.853 -22.152  0.00  0.00    +0.277 C 
ATOM     22  O   UNL     1       1.807   1.842 -21.816  0.00  0.00    -0.491 OA
ENDBRANCH   1  22
TORSDOF 1
ENDMDL
MODEL 4
REMARK VINA RESULT:    -9.970      2.097      4.954
REMARK INTER + INTRA:         -10.658
REMARK INTER:                 -10.552
REMARK INTRA:                  -0.106
REMARK UNBOUND:                -0.105
REMARK  Name = COc1ccc2c3c1O[C@@H]1C=CC=C4[C@H](C2)N(C)CC[C@]431                    ZINC000100393591
REMARK  3 active torsions:
REMARK  status: ('A' for Active; 'I' for Inactive)
REMARK    1  A    between atoms: C_1  and  O_2
REMARK    2  A    between atoms: O_2  and  C_3
REMARK    3  A    between atoms: N_17  and  C_18
REMARK                            x       y       z     vdW  Elec       q    Type
REMARK                         _______ _______ _______ _____ _____    ______ ____
ROOT
ATOM      1  C   UNL     1      -3.675   3.279 -22.646  0.00  0.00    +0.162 A 
ATOM      2  C   UNL     1      -3.595   2.688 -21.534  0.00  0.00    +0.050 A 
ATOM      3  C   UNL     1      -2.508   2.216 -21.146  0.00  0.00    +0.008 A 
ATOM      4  C   UNL     1      -1.493   2.328 -21.863  0.00  0.00    -0.034 A 
ATOM      5  C   UNL     1      -1.548   2.911 -22.974  0.00  0.00    +0.016 A 
ATOM      6  C   UNL     1      -0.532   3.020 -23.685  0.00  0.00    +0.071 C 
ATOM      7  C   UNL     1       0.557   3.206 -24.582  0.00  0.00    +0.071 C 
ATOM      8  C   UNL     1       1.797   2.683 -24.171  0.00  0.00    +0.133 C 
ATOM      9  N   UNL     1       1.848   2.032 -22.925  0.00  0.00    +0.239 N 
ATOM     10  H   UNL     1       2.722   1.636 -22.581  0.00  0.00    +0.204 HD
ATOM     11  C   UNL     1       2.908   1.542 -22.488  0.00  0.00    +0.191 C 
ATOM     12  C   UNL     1       0.636   1.959 -22.188  0.00  0.00    +0.096 C 
ATOM     13  C   UNL     1       0.558   2.549 -23.301  0.00  0.00    -0.007 C 
ATOM     14  C   UNL     1       1.587   2.660 -24.022  0.00  0.00    +0.006 C 
ATOM     15  C   UNL     1       1.514   3.242 -25.123  0.00  0.00    -0.000 C 
ATOM     16  C   UNL     1       0.419   3.722 -25.522  0.00  0.00    +0.018 C 
ATOM     17  C   UNL     1      -0.597   3.611 -24.805  0.00  0.00    +0.212 C 
ATOM     18  O   UNL     1      -2.068   3.902 -24.652  0.00  0.00    -0.480 OA
ATOM     19  C   UNL     1      -0.380   1.848 -21.473  0.00  0.00    +0.094 C 
ATOM     20  C   UNL     1      -2.644   3.389 -23.368  0.00  0.00    +0.167 A 
ENDROOT
BRANCH   1  22
ATOM     21  C   UNL     1      -5.828   3.391 -22.485  0.00  0.00    +0.277 C 
ATOM     22  O   UNL     1      -4.764   3.749 -23.030  0.00  0.00    -0.491 OA
ENDBRANCH   1  22
TORSDOF 1
ENDMDL
MODEL 5
REMARK VINA RESULT:    -9.768      2.617      6.329
REMARK INTER + INTRA:         -10.444
REMARK INTER:                 -10.318
REMARK INTRA:                  -0.126
REMARK UNBOUND:                -0.105
REMARK  Name = COc1ccc2c3c1O[C@@H]1C=CC=C4[C@H](C2)N(C)CC[C@]431                    ZINC000100393591
REMARK  3 active torsions:
REMARK  status: ('A' for Active; 'I' for Inactive)
REMARK    1  A    between atoms: C_1  and  O_2
REMARK    2  A    between atoms: O_2  and  C_3
REMARK    3  A    between atoms: N_17  and  C_18
REMARK                            x       y       z     vdW  Elec       q    Type
REMARK                         _______ _______ _______ _____ _____    ______ ____
ROOT
ATOM      1  C   UNL     1      -1.805   3.221 -23.168  0.00  0.00    +0.162 A 
ATOM      2  C   UNL     1      -1.792   4.435 -23.512  0.00  0.00    +0.050 A 
ATOM      3  C   UNL     1      -0.714   5.056 -23.598  0.00  0.00    +0.008 A 
ATOM      4  C   UNL     1       0.359   4.472 -23.342  0.00  0.00    -0.034 A 
ATOM      5  C   UNL     1       0.372   3.265 -22.998  0.00  0.00    +0.016 A 
ATOM      6  C   UNL     1       1.445   2.689 -22.744  0.00  0.00    +0.071 C 
ATOM      7  C   UNL     1       2.604   1.925 -22.429  0.00  0.00    +0.071 C 
ATOM      8  C   UNL     1       3.836   2.600 -22.518  0.00  0.00    +0.133 C 
ATOM      9  N   UNL     1       3.811   3.952 -22.905  0.00  0.00    +0.239 N 
ATOM     10  H   UNL     1       4.676   4.486 -22.984  0.00  0.00    +0.204 HD
ATOM     11  C   UNL     1       4.858   4.621 -23.007  0.00  0.00    +0.191 C 
ATOM     12  C   UNL     1       2.537   4.520 -23.173  0.00  0.00    +0.096 C 
ATOM     13  C   UNL     1       2.526   3.306 -22.829  0.00  0.00    -0.007 C 
ATOM     14  C   UNL     1       3.614   2.720 -22.571  0.00  0.00    +0.006 C 
ATOM     15  C   UNL     1       3.607   1.521 -22.230  0.00  0.00    -0.000 C 
ATOM     16  C   UNL     1       2.522   0.886 -22.141  0.00  0.00    +0.018 C 
ATOM     17  C   UNL     1       1.448   1.469 -22.397  0.00  0.00    +0.212 C 
ATOM     18  O   UNL     1      -0.052   1.360 -22.491  0.00  0.00    -0.480 OA
ATOM     19  C   UNL     1       1.463   5.101 -23.429  0.00  0.00    +0.094 C 
ATOM     20  C   UNL     1      -0.715   2.635 -22.910  0.00  0.00    +0.167 A 
ENDROOT
BRANCH   1  22
ATOM     21  C   UNL     1      -3.742   2.954 -22.246  0.00  0.00    +0.277 C 
ATOM     22  O   UNL     1      -2.885   2.604 -23.083  0.00  0.00    -0.491 OA
ENDBRANCH   1  22
TORSDOF 1
ENDMDL
MODEL 6
REMARK VINA RESULT:    -9.488      2.314      5.674
REMARK INTER + INTRA:         -10.148
REMARK INTER:                 -10.034
REMARK INTRA:                  -0.114
REMARK UNBOUND:                -0.105
REMARK  Name = COc1ccc2c3c1O[C@@H]1C=CC=C4[C@H](C2)N(C)CC[C@]431                    ZINC000100393591
REMARK  3 active torsions:
REMARK  status: ('A' for Active; 'I' for Inactive)
REMARK    1  A    between atoms: C_1  and  O_2
REMARK    2  A    between atoms: O_2  and  C_3
REMARK    3  A    between atoms: N_17  and  C_18
REMARK                            x       y       z     vdW  Elec       q    Type
REMARK                         _______ _______ _______ _____ _____    ______ ____
ROOT
ATOM      1  C   UNL     1      -1.951   4.047 -23.651  0.00  0.00    +0.162 A 
ATOM      2  C   UNL     1      -2.517   3.100 -23.039  0.00  0.00    +0.050 A 
ATOM      3  C   UNL     1      -1.841   2.251 -22.425  0.00  0.00    +0.008 A 
ATOM      4  C   UNL     1      -0.596   2.338 -22.417  0.00  0.00    -0.034 A 
ATOM      5  C   UNL     1      -0.010   3.271 -23.019  0.00  0.00    +0.016 A 
ATOM      6  C   UNL     1       1.232   3.353 -23.008  0.00  0.00    +0.071 C 
ATOM      7  C   UNL     1       2.640   3.551 -23.066  0.00  0.00    +0.071 C 
ATOM      8  C   UNL     1       3.429   2.607 -22.382  0.00  0.00    +0.133 C 
ATOM      9  N   UNL     1       2.763   1.566 -21.711  0.00  0.00    +0.239 N 
ATOM     10  H   UNL     1       3.288   0.856 -21.200  0.00  0.00    +0.204 HD
ATOM     11  C   UNL     1       3.389   0.690 -21.082  0.00  0.00    +0.191 C 
ATOM     12  C   UNL     1       1.344   1.559 -21.783  0.00  0.00    +0.096 C 
ATOM     13  C   UNL     1       1.913   2.505 -22.395  0.00  0.00    -0.007 C 
ATOM     14  C   UNL     1       3.171   2.589 -22.384  0.00  0.00    +0.006 C 
ATOM     15  C   UNL     1       3.736   3.522 -22.988  0.00  0.00    -0.000 C 
ATOM     16  C   UNL     1       3.061   4.385 -23.610  0.00  0.00    +0.018 C 
ATOM     17  C   UNL     1       1.815   4.298 -23.619  0.00  0.00    +0.212 C 
ATOM     18  O   UNL     1       0.515   4.895 -24.094  0.00  0.00    -0.480 OA
ATOM     19  C   UNL     1       0.100   1.474 -21.792  0.00  0.00    +0.094 C 
ATOM     20  C   UNL     1      -0.690   4.131 -23.640  0.00  0.00    +0.167 A 
ENDROOT
BRANCH   1  22
ATOM     21  C   UNL     1      -3.612   4.535 -24.945  0.00  0.00    +0.277 C 
ATOM     22  O   UNL     1      -2.631   4.895 -24.264  0.00  0.00    -0.491 OA
ENDBRANCH   1  22
TORSDOF 1
ENDMDL
MODEL 7
REMARK VINA RESULT:    -9.411      2.350      4.383
REMARK INTER + INTRA:         -10.066
REMARK INTER:                  -9.944
REMARK INTRA:                  -0.122
REMARK UNBOUND:                -0.105
REMARK  Name = COc1ccc2c3c1O[C@@H]1C=CC=C4[C@H](C2)N(C)CC[C@]431                    ZINC000100393591
REMARK  3 active torsions:
REMARK  status: ('A' for Active; 'I' for Inactive)
REMARK    1  A    between atoms: C_1  and  O_2
REMARK    2  A    between atoms: O_2  and  C_3
REMARK    3  A    between atoms: N_17  and  C_18
REMARK                            x       y       z     vdW  Elec       q    Type
REMARK                         _______ _______ _______ _____ _____    ______ ____
ROOT
ATOM      1  C   UNL     1       3.999   2.587 -22.291  0.00  0.00    +0.162 A 
ATOM      2  C   UNL     1       4.226   3.543 -23.084  0.00  0.00    +0.050 A 
ATOM      3  C   UNL     1       3.282   4.150 -23.629  0.00  0.00    +0.008 A 
ATOM      4  C   UNL     1       2.105   3.810 -23.387  0.00  0.00    -0.034 A 
ATOM      5  C   UNL     1       1.855   2.862 -22.602  0.00  0.00    +0.016 A 
ATOM      6  C   UNL     1       0.680   2.528 -22.365  0.00  0.00    +0.071 C 
ATOM      7  C   UNL     1      -0.617   2.056 -22.018  0.00  0.00    +0.071 C 
ATOM      8  C   UNL     1      -1.702   2.723 -22.617  0.00  0.00    +0.133 C 
ATOM      9  N   UNL     1      -1.411   3.782 -23.495  0.00  0.00    +0.239 N 
ATOM     10  H   UNL     1      -2.161   4.298 -23.955  0.00  0.00    +0.204 HD
ATOM     11  C   UNL     1      -2.315   4.423 -24.066  0.00  0.00    +0.191 C 
ATOM     12  C   UNL     1      -0.039   4.088 -23.700  0.00  0.00    +0.096 C 
ATOM     13  C   UNL     1      -0.267   3.133 -22.908  0.00  0.00    -0.007 C 
ATOM     14  C   UNL     1      -1.458   2.793 -22.667  0.00  0.00    +0.006 C 
ATOM     15  C   UNL     1      -1.688   1.850 -21.884  0.00  0.00    -0.000 C 
ATOM     16  C   UNL     1      -0.741   1.231 -21.330  0.00  0.00    +0.018 C 
ATOM     17  C   UNL     1       0.437   1.570 -21.571  0.00  0.00    +0.212 C 
ATOM     18  O   UNL     1       1.899   1.319 -21.305  0.00  0.00    -0.480 OA
ATOM     19  C   UNL     1       1.138   4.426 -23.940  0.00  0.00    +0.094 C 
ATOM     20  C   UNL     1       2.806   2.248 -22.051  0.00  0.00    +0.167 A 
ENDROOT
BRANCH   1  22
ATOM     21  C   UNL     1       5.222   0.816 -22.094  0.00  0.00    +0.277 C 
ATOM     22  O   UNL     1       4.946   1.983 -21.749  0.00  0.00    -0.491 OA
ENDBRANCH   1  22
TORSDOF 1
ENDMDL
