MODEL 1
REMARK VINA RESULT:   -11.109      0.000      0.000
REMARK INTER + INTRA:         -11.758
REMARK INTER:                 -11.758
REMARK INTRA:                   0.000
REMARK UNBOUND:                 0.000
REMARK  Name = C[C@]12CC[C@@H]3c4cc(Br)c(O)cc4CC[C@@H]3[C@H]1CC[C@@H]2O             ZINC000105156018
REMARK  3 active torsions:
REMARK  status: ('A' for Active; 'I' for Inactive)
REMARK    1  A    between atoms: C_1  and  C_2
REMARK    2  A    between atoms: C_10  and  O_11
REMARK    3  A    between atoms: C_20  and  O_21
REMARK                            x       y       z     vdW  Elec       q    Type
REMARK                         _______ _______ _______ _____ _____    ______ ____
ROOT
ATOM      1  C   UNL     1      -4.571   3.064 -21.820  0.00  0.00    +0.014 C 
ATOM      2  C   UNL     1      -3.841   3.300 -22.869  0.00  0.00    -0.003 C 
ATOM      3  C   UNL     1      -3.183   2.788 -21.871  0.00  0.00    +0.010 C 
ATOM      4  C   UNL     1      -1.908   2.559 -21.981  0.00  0.00    +0.009 C 
ATOM      5  C   UNL     1      -1.291   2.842 -23.090  0.00  0.00    +0.023 C 
ATOM      6  C   UNL     1      -0.016   2.613 -23.200  0.00  0.00    -0.040 A 
ATOM      7  C   UNL     1       0.641   2.101 -22.203  0.00  0.00    +0.023 A 
ATOM      8  C   UNL     1       1.917   1.872 -22.312  0.00  0.00    +0.060 A 
ATOM      9  C   UNL     1       2.534   2.155 -23.422  0.00  0.00    +0.131 A 
ATOM     10  C   UNL     1       1.876   2.666 -24.420  0.00  0.00    +0.050 A 
ATOM     11 BR   UNL     1       2.574   1.361 -21.315  0.00  0.00    -0.047 Br
ATOM     12  C   UNL     1       0.602   2.895 -24.309  0.00  0.00    -0.040 A 
ATOM     13  C   UNL     1      -0.056   3.407 -25.307  0.00  0.00    +0.036 C 
ATOM     14  C   UNL     1      -1.331   3.636 -25.197  0.00  0.00    +0.009 C 
ATOM     15  C   UNL     1      -1.948   3.353 -24.089  0.00  0.00    +0.000 C 
ATOM     16  C   UNL     1      -5.092   3.619 -23.013  0.00  0.00    +0.121 C 
ATOM     17  C   UNL     1      -5.249   4.099 -24.212  0.00  0.00    +0.032 C 
ATOM     18  C   UNL     1      -4.093   4.076 -24.808  0.00  0.00    +0.007 C 
ATOM     19  C   UNL     1      -3.223   3.582 -23.978  0.00  0.00    +0.001 C 
ENDROOT
BRANCH   9  20
ATOM     20  O   UNL     1       3.809   1.925 -23.532  0.00  0.00    -0.506 OA
ATOM     21  H   UNL     1       4.180   1.732 -24.370  0.00  0.00    +0.292 HD
ENDBRANCH   9  20
BRANCH  16  22
ATOM     22  O   UNL     1      -6.024   3.483 -22.118  0.00  0.00    -0.391 OA
ATOM     23  H   UNL     1      -6.237   2.542 -22.013  0.00  0.00    +0.210 HD
ENDBRANCH  16  22
TORSDOF 2
ENDMDL
MODEL 2
REMARK VINA RESULT:   -11.034      1.331      2.563
REMARK INTER + INTRA:         -11.679
REMARK INTER:                 -11.679
REMARK INTRA:                   0.000
REMARK UNBOUND:                 0.000
REMARK  Name = C[C@]12CC[C@@H]3c4cc(Br)c(O)cc4CC[C@@H]3[C@H]1CC[C@@H]2O             ZINC000105156018
REMARK  3 active torsions:
REMARK  status: ('A' for Active; 'I' for Inactive)
REMARK    1  A    between atoms: C_1  and  C_2
REMARK    2  A    between atoms: C_10  and  O_11
REMARK    3  A    between atoms: C_20  and  O_21
REMARK                            x       y       z     vdW  Elec       q    Type
REMARK                         _______ _______ _______ _____ _____    ______ ____
ROOT
ATOM      1  C   UNL     1      -3.684   4.140 -25.483  0.00  0.00    +0.014 C 
ATOM      2  C   UNL     1      -3.406   3.633 -24.319  0.00  0.00    -0.003 C 
ATOM      3  C   UNL     1      -2.393   3.678 -25.131  0.00  0.00    +0.010 C 
ATOM      4  C   UNL     1      -1.231   3.236 -24.748  0.00  0.00    +0.009 C 
ATOM      5  C   UNL     1      -1.084   2.750 -23.551  0.00  0.00    +0.023 C 
ATOM      6  C   UNL     1       0.077   2.308 -23.167  0.00  0.00    -0.040 A 
ATOM      7  C   UNL     1       1.090   2.353 -23.979  0.00  0.00    +0.023 A 
ATOM      8  C   UNL     1       2.252   1.912 -23.596  0.00  0.00    +0.060 A 
ATOM      9  C   UNL     1       2.398   1.425 -22.399  0.00  0.00    +0.131 A 
ATOM     10  C   UNL     1       1.384   1.380 -21.586  0.00  0.00    +0.050 A 
ATOM     11 BR   UNL     1       3.265   1.957 -24.408  0.00  0.00    -0.047 Br
ATOM     12  C   UNL     1       0.224   1.822 -21.971  0.00  0.00    -0.040 A 
ATOM     13  C   UNL     1      -0.791   1.777 -21.158  0.00  0.00    +0.036 C 
ATOM     14  C   UNL     1      -1.951   2.218 -21.542  0.00  0.00    +0.009 C 
ATOM     15  C   UNL     1      -2.098   2.705 -22.738  0.00  0.00    +0.000 C 
ATOM     16  C   UNL     1      -4.645   4.001 -24.454  0.00  0.00    +0.121 C 
ATOM     17  C   UNL     1      -5.265   3.742 -23.340  0.00  0.00    +0.032 C 
ATOM     18  C   UNL     1      -4.407   3.213 -22.517  0.00  0.00    +0.007 C 
ATOM     19  C   UNL     1      -3.259   3.146 -23.122  0.00  0.00    +0.001 C 
ENDROOT
BRANCH   9  20
ATOM     20  O   UNL     1       3.559   0.984 -22.015  0.00  0.00    -0.506 OA
ATOM     21  H   UNL     1       3.906   1.239 -21.183  0.00  0.00    +0.292 HD
ENDBRANCH   9  20
BRANCH  16  22
ATOM     22  O   UNL     1      -5.173   4.534 -25.515  0.00  0.00    -0.391 OA
ATOM     23  H   UNL     1      -6.064   4.173 -25.649  0.00  0.00    +0.210 HD
ENDBRANCH  16  22
TORSDOF 2
ENDMDL
MODEL 3
REMARK VINA RESULT:   -10.545      1.878      5.902
REMARK INTER + INTRA:         -11.161
REMARK INTER:                 -11.161
REMARK INTRA:                   0.000
REMARK UNBOUND:                 0.000
REMARK  Name = C[C@]12CC[C@@H]3c4cc(Br)c(O)cc4CC[C@@H]3[C@H]1CC[C@@H]2O             ZINC000105156018
REMARK  3 active torsions:
REMARK  status: ('A' for Active; 'I' for Inactive)
REMARK    1  A    between atoms: C_1  and  C_2
REMARK    2  A    between atoms: C_10  and  O_11
REMARK    3  A    between atoms: C_20  and  O_21
REMARK                            x       y       z     vdW  Elec       q    Type
REMARK                         _______ _______ _______ _____ _____    ______ ____
ROOT
ATOM      1  C   UNL     1       2.270   1.099 -21.652  0.00  0.00    +0.014 C 
ATOM      2  C   UNL     1       1.783   1.714 -22.688  0.00  0.00    -0.003 C 
ATOM      3  C   UNL     1       0.915   1.498 -21.745  0.00  0.00    +0.010 C 
ATOM      4  C   UNL     1      -0.317   1.889 -21.892  0.00  0.00    +0.009 C 
ATOM      5  C   UNL     1      -0.680   2.496 -22.982  0.00  0.00    +0.023 C 
ATOM      6  C   UNL     1      -1.910   2.888 -23.130  0.00  0.00    -0.040 A 
ATOM      7  C   UNL     1      -2.778   2.672 -22.187  0.00  0.00    +0.023 A 
ATOM      8  C   UNL     1      -4.009   3.063 -22.333  0.00  0.00    +0.060 A 
ATOM      9  C   UNL     1      -4.372   3.671 -23.425  0.00  0.00    +0.131 A 
ATOM     10  C   UNL     1      -3.504   3.887 -24.368  0.00  0.00    +0.050 A 
ATOM     11 BR   UNL     1      -4.877   2.847 -21.391  0.00  0.00    -0.047 Br
ATOM     12  C   UNL     1      -2.273   3.496 -24.220  0.00  0.00    -0.040 A 
ATOM     13  C   UNL     1      -1.404   3.711 -25.164  0.00  0.00    +0.036 C 
ATOM     14  C   UNL     1      -0.174   3.320 -25.017  0.00  0.00    +0.009 C 
ATOM     15  C   UNL     1       0.189   2.713 -23.926  0.00  0.00    +0.000 C 
ATOM     16  C   UNL     1       3.047   1.430 -22.788  0.00  0.00    +0.121 C 
ATOM     17  C   UNL     1       3.466   1.861 -23.940  0.00  0.00    +0.032 C 
ATOM     18  C   UNL     1       2.460   2.413 -24.553  0.00  0.00    +0.007 C 
ATOM     19  C   UNL     1       1.420   2.321 -23.779  0.00  0.00    +0.001 C 
ENDROOT
BRANCH   9  20
ATOM     20  O   UNL     1      -5.603   4.062 -23.572  0.00  0.00    -0.506 OA
ATOM     21  H   UNL     1      -6.205   3.993 -22.857  0.00  0.00    +0.292 HD
ENDBRANCH   9  20
BRANCH  16  22
ATOM     22  O   UNL     1       3.767   0.821 -21.893  0.00  0.00    -0.391 OA
ATOM     23  H   UNL     1       3.199   0.238 -21.364  0.00  0.00    +0.210 HD
ENDBRANCH  16  22
TORSDOF 2
ENDMDL
MODEL 4
REMARK VINA RESULT:    -9.662      1.819      2.827
REMARK INTER + INTRA:         -10.227
REMARK INTER:                 -10.227
REMARK INTRA:                   0.000
REMARK UNBOUND:                 0.000
REMARK  Name = C[C@]12CC[C@@H]3c4cc(Br)c(O)cc4CC[C@@H]3[C@H]1CC[C@@H]2O             ZINC000105156018
REMARK  3 active torsions:
REMARK  status: ('A' for Active; 'I' for Inactive)
REMARK    1  A    between atoms: C_1  and  C_2
REMARK    2  A    between atoms: C_10  and  O_11
REMARK    3  A    between atoms: C_20  and  O_21
REMARK                            x       y       z     vdW  Elec       q    Type
REMARK                         _______ _______ _______ _____ _____    ______ ____
ROOT
ATOM      1  C   UNL     1      -2.213   2.222 -22.071  0.00  0.00    +0.014 C 
ATOM      2  C   UNL     1      -1.301   2.963 -22.626  0.00  0.00    -0.003 C 
ATOM      3  C   UNL     1      -0.826   1.982 -21.919  0.00  0.00    +0.010 C 
ATOM      4  C   UNL     1       0.459   1.815 -21.817  0.00  0.00    +0.009 C 
ATOM      5  C   UNL     1       1.270   2.630 -22.425  0.00  0.00    +0.023 C 
ATOM      6  C   UNL     1       2.555   2.464 -22.324  0.00  0.00    -0.040 A 
ATOM      7  C   UNL     1       3.030   1.482 -21.617  0.00  0.00    +0.023 A 
ATOM      8  C   UNL     1       4.316   1.315 -21.516  0.00  0.00    +0.060 A 
ATOM      9  C   UNL     1       5.126   2.131 -22.124  0.00  0.00    +0.131 A 
ATOM     10  C   UNL     1       4.651   3.112 -22.831  0.00  0.00    +0.050 A 
ATOM     11 BR   UNL     1       4.790   0.334 -20.808  0.00  0.00    -0.047 Br
ATOM     12  C   UNL     1       3.366   3.278 -22.932  0.00  0.00    -0.040 A 
ATOM     13  C   UNL     1       2.890   4.260 -23.640  0.00  0.00    +0.036 C 
ATOM     14  C   UNL     1       1.606   4.427 -23.740  0.00  0.00    +0.009 C 
ATOM     15  C   UNL     1       0.795   3.612 -23.133  0.00  0.00    +0.000 C 
ATOM     16  C   UNL     1      -2.518   3.341 -22.882  0.00  0.00    +0.121 C 
ATOM     17  C   UNL     1      -2.460   4.390 -23.648  0.00  0.00    +0.032 C 
ATOM     18  C   UNL     1      -1.206   4.660 -23.865  0.00  0.00    +0.007 C 
ATOM     19  C   UNL     1      -0.490   3.778 -23.233  0.00  0.00    +0.001 C 
ENDROOT
BRANCH   9  20
ATOM     20  O   UNL     1       6.412   1.964 -22.023  0.00  0.00    -0.506 OA
ATOM     21  H   UNL     1       6.769   1.100 -21.971  0.00  0.00    +0.292 HD
ENDBRANCH   9  20
BRANCH  16  22
ATOM     22  O   UNL     1      -3.603   2.771 -22.449  0.00  0.00    -0.391 OA
ATOM     23  H   UNL     1      -3.419   1.841 -22.242  0.00  0.00    +0.210 HD
ENDBRANCH  16  22
TORSDOF 2
ENDMDL
MODEL 5
REMARK VINA RESULT:    -9.457      1.470      2.710
REMARK INTER + INTRA:         -10.009
REMARK INTER:                 -10.009
REMARK INTRA:                   0.000
REMARK UNBOUND:                 0.000
REMARK  Name = C[C@]12CC[C@@H]3c4cc(Br)c(O)cc4CC[C@@H]3[C@H]1CC[C@@H]2O             ZINC000105156018
REMARK  3 active torsions:
REMARK  status: ('A' for Active; 'I' for Inactive)
REMARK    1  A    between atoms: C_1  and  C_2
REMARK    2  A    between atoms: C_10  and  O_11
REMARK    3  A    between atoms: C_20  and  O_21
REMARK                            x       y       z     vdW  Elec       q    Type
REMARK                         _______ _______ _______ _____ _____    ______ ____
ROOT
ATOM      1  C   UNL     1      -5.319   3.789 -23.192  0.00  0.00    +0.014 C 
ATOM      2  C   UNL     1      -4.406   3.196 -22.482  0.00  0.00    -0.003 C 
ATOM      3  C   UNL     1      -3.948   3.787 -23.545  0.00  0.00    +0.010 C 
ATOM      4  C   UNL     1      -2.676   3.748 -23.814  0.00  0.00    +0.009 C 
ATOM      5  C   UNL     1      -1.863   3.118 -23.019  0.00  0.00    +0.023 C 
ATOM      6  C   UNL     1      -0.592   3.079 -23.286  0.00  0.00    -0.040 A 
ATOM      7  C   UNL     1      -0.133   3.670 -24.349  0.00  0.00    +0.023 A 
ATOM      8  C   UNL     1       1.138   3.631 -24.618  0.00  0.00    +0.060 A 
ATOM      9  C   UNL     1       1.951   3.000 -23.822  0.00  0.00    +0.131 A 
ATOM     10  C   UNL     1       1.493   2.410 -22.759  0.00  0.00    +0.050 A 
ATOM     11 BR   UNL     1       1.597   4.222 -25.681  0.00  0.00    -0.047 Br
ATOM     12  C   UNL     1       0.222   2.449 -22.491  0.00  0.00    -0.040 A 
ATOM     13  C   UNL     1      -0.238   1.858 -21.428  0.00  0.00    +0.036 C 
ATOM     14  C   UNL     1      -1.508   1.897 -21.159  0.00  0.00    +0.009 C 
ATOM     15  C   UNL     1      -2.321   2.527 -21.954  0.00  0.00    +0.000 C 
ATOM     16  C   UNL     1      -5.607   3.088 -21.997  0.00  0.00    +0.121 C 
ATOM     17  C   UNL     1      -5.536   2.391 -20.901  0.00  0.00    +0.032 C 
ATOM     18  C   UNL     1      -4.291   2.068 -20.710  0.00  0.00    +0.007 C 
ATOM     19  C   UNL     1      -3.593   2.566 -21.687  0.00  0.00    +0.001 C 
ENDROOT
BRANCH   9  20
ATOM     20  O   UNL     1       3.223   2.962 -24.091  0.00  0.00    -0.506 OA
ATOM     21  H   UNL     1       3.515   2.999 -24.980  0.00  0.00    +0.292 HD
ENDBRANCH   9  20
BRANCH  16  22
ATOM     22  O   UNL     1      -6.689   3.588 -22.515  0.00  0.00    -0.391 OA
ATOM     23  H   UNL     1      -6.810   4.497 -22.196  0.00  0.00    +0.210 HD
ENDBRANCH  16  22
TORSDOF 2
ENDMDL
MODEL 6
REMARK VINA RESULT:    -9.349      2.013      6.275
REMARK INTER + INTRA:          -9.895
REMARK INTER:                  -9.895
REMARK INTRA:                   0.000
REMARK UNBOUND:                 0.000
REMARK  Name = C[C@]12CC[C@@H]3c4cc(Br)c(O)cc4CC[C@@H]3[C@H]1CC[C@@H]2O             ZINC000105156018
REMARK  3 active torsions:
REMARK  status: ('A' for Active; 'I' for Inactive)
REMARK    1  A    between atoms: C_1  and  C_2
REMARK    2  A    between atoms: C_10  and  O_11
REMARK    3  A    between atoms: C_20  and  O_21
REMARK                            x       y       z     vdW  Elec       q    Type
REMARK                         _______ _______ _______ _____ _____    ______ ____
ROOT
ATOM      1  C   UNL     1       3.666   1.187 -21.101  0.00  0.00    +0.014 C 
ATOM      2  C   UNL     1       3.222   1.958 -22.048  0.00  0.00    -0.003 C 
ATOM      3  C   UNL     1       2.293   1.490 -21.269  0.00  0.00    +0.010 C 
ATOM      4  C   UNL     1       1.049   1.806 -21.477  0.00  0.00    +0.009 C 
ATOM      5  C   UNL     1       0.734   2.590 -22.464  0.00  0.00    +0.023 C 
ATOM      6  C   UNL     1      -0.509   2.906 -22.673  0.00  0.00    -0.040 A 
ATOM      7  C   UNL     1      -1.438   2.438 -21.893  0.00  0.00    +0.023 A 
ATOM      8  C   UNL     1      -2.682   2.754 -22.101  0.00  0.00    +0.060 A 
ATOM      9  C   UNL     1      -2.996   3.539 -23.090  0.00  0.00    +0.131 A 
ATOM     10  C   UNL     1      -2.068   4.007 -23.869  0.00  0.00    +0.050 A 
ATOM     11 BR   UNL     1      -3.611   2.286 -21.322  0.00  0.00    -0.047 Br
ATOM     12  C   UNL     1      -0.824   3.691 -23.661  0.00  0.00    -0.040 A 
ATOM     13  C   UNL     1       0.106   4.159 -24.440  0.00  0.00    +0.036 C 
ATOM     14  C   UNL     1       1.349   3.843 -24.232  0.00  0.00    +0.009 C 
ATOM     15  C   UNL     1       1.664   3.059 -23.245  0.00  0.00    +0.000 C 
ATOM     16  C   UNL     1       4.512   1.799 -22.057  0.00  0.00    +0.121 C 
ATOM     17  C   UNL     1       4.995   2.485 -23.050  0.00  0.00    +0.032 C 
ATOM     18  C   UNL     1       4.002   3.068 -23.655  0.00  0.00    +0.007 C 
ATOM     19  C   UNL     1       2.907   2.742 -23.036  0.00  0.00    +0.001 C 
ENDROOT
BRANCH   9  20
ATOM     20  O   UNL     1      -4.240   3.855 -23.297  0.00  0.00    -0.506 OA
ATOM     21  H   UNL     1      -4.721   3.438 -23.984  0.00  0.00    +0.292 HD
ENDBRANCH   9  20
BRANCH  16  22
ATOM     22  O   UNL     1       5.199   1.080 -21.219  0.00  0.00    -0.391 OA
ATOM     23  H   UNL     1       4.933   1.298 -20.312  0.00  0.00    +0.210 HD
ENDBRANCH  16  22
TORSDOF 2
ENDMDL
MODEL 7
REMARK VINA RESULT:    -9.298      1.861      3.413
REMARK INTER + INTRA:          -9.841
REMARK INTER:                  -9.841
REMARK INTRA:                   0.000
REMARK UNBOUND:                 0.000
REMARK  Name = C[C@]12CC[C@@H]3c4cc(Br)c(O)cc4CC[C@@H]3[C@H]1CC[C@@H]2O             ZINC000105156018
REMARK  3 active torsions:
REMARK  status: ('A' for Active; 'I' for Inactive)
REMARK    1  A    between atoms: C_1  and  C_2
REMARK    2  A    between atoms: C_10  and  O_11
REMARK    3  A    between atoms: C_20  and  O_21
REMARK                            x       y       z     vdW  Elec       q    Type
REMARK                         _______ _______ _______ _____ _____    ______ ____
ROOT
ATOM      1  C   UNL     1      -1.828   4.435 -24.206  0.00  0.00    +0.014 C 
ATOM      2  C   UNL     1      -1.427   3.593 -23.301  0.00  0.00    -0.003 C 
ATOM      3  C   UNL     1      -0.461   4.165 -23.957  0.00  0.00    +0.010 C 
ATOM      4  C   UNL     1       0.776   3.874 -23.680  0.00  0.00    +0.009 C 
ATOM      5  C   UNL     1       1.046   3.010 -22.746  0.00  0.00    +0.023 C 
ATOM      6  C   UNL     1       2.282   2.718 -22.468  0.00  0.00    -0.040 A 
ATOM      7  C   UNL     1       3.247   3.290 -23.124  0.00  0.00    +0.023 A 
ATOM      8  C   UNL     1       4.484   2.999 -22.847  0.00  0.00    +0.060 A 
ATOM      9  C   UNL     1       4.754   2.135 -21.913  0.00  0.00    +0.131 A 
ATOM     10  C   UNL     1       3.788   1.563 -21.257  0.00  0.00    +0.050 A 
ATOM     11 BR   UNL     1       5.450   3.570 -23.503  0.00  0.00    -0.047 Br
ATOM     12  C   UNL     1       2.552   1.855 -21.535  0.00  0.00    -0.040 A 
ATOM     13  C   UNL     1       1.586   1.284 -20.879  0.00  0.00    +0.036 C 
ATOM     14  C   UNL     1       0.350   1.575 -21.156  0.00  0.00    +0.009 C 
ATOM     15  C   UNL     1       0.080   2.438 -22.089  0.00  0.00    +0.000 C 
ATOM     16  C   UNL     1      -2.719   3.707 -23.382  0.00  0.00    +0.121 C 
ATOM     17  C   UNL     1      -3.248   2.913 -22.498  0.00  0.00    +0.032 C 
ATOM     18  C   UNL     1      -2.281   2.309 -21.871  0.00  0.00    +0.007 C 
ATOM     19  C   UNL     1      -1.156   2.730 -22.367  0.00  0.00    +0.001 C 
ENDROOT
BRANCH   9  20
ATOM     20  O   UNL     1       5.990   1.844 -21.636  0.00  0.00    -0.506 OA
ATOM     21  H   UNL     1       6.544   1.477 -22.296  0.00  0.00    +0.292 HD
ENDBRANCH   9  20
BRANCH  16  22
ATOM     22  O   UNL     1      -3.369   4.478 -24.202  0.00  0.00    -0.391 OA
ATOM     23  H   UNL     1      -4.323   4.339 -24.088  0.00  0.00    +0.210 HD
ENDBRANCH  16  22
TORSDOF 2
ENDMDL
MODEL 8
REMARK VINA RESULT:    -8.349      3.275      5.144
REMARK INTER + INTRA:          -8.837
REMARK INTER:                  -8.837
REMARK INTRA:                   0.000
REMARK UNBOUND:                 0.000
REMARK  Name = C[C@]12CC[C@@H]3c4cc(Br)c(O)cc4CC[C@@H]3[C@H]1CC[C@@H]2O             ZINC000105156018
REMARK  3 active torsions:
REMARK  status: ('A' for Active; 'I' for Inactive)
REMARK    1  A    between atoms: C_1  and  C_2
REMARK    2  A    between atoms: C_10  and  O_11
REMARK    3  A    between atoms: C_20  and  O_21
REMARK                            x       y       z     vdW  Elec       q    Type
REMARK                         _______ _______ _______ _____ _____    ______ ____
ROOT
ATOM      1  C   UNL     1      -0.085   4.914 -23.569  0.00  0.00    +0.014 C 
ATOM      2  C   UNL     1       0.644   3.883 -23.260  0.00  0.00    -0.003 C 
ATOM      3  C   UNL     1       1.321   4.980 -23.421  0.00  0.00    +0.010 C 
ATOM      4  C   UNL     1       2.613   4.976 -23.271  0.00  0.00    +0.009 C 
ATOM      5  C   UNL     1       3.227   3.873 -22.959  0.00  0.00    +0.023 C 
ATOM      6  C   UNL     1       4.518   3.867 -22.809  0.00  0.00    -0.040 A 
ATOM      7  C   UNL     1       5.195   4.964 -22.970  0.00  0.00    +0.023 A 
ATOM      8  C   UNL     1       6.487   4.960 -22.820  0.00  0.00    +0.060 A 
ATOM      9  C   UNL     1       7.100   3.855 -22.508  0.00  0.00    +0.131 A 
ATOM     10  C   UNL     1       6.423   2.758 -22.347  0.00  0.00    +0.050 A 
ATOM     11 BR   UNL     1       7.165   6.057 -22.981  0.00  0.00    -0.047 Br
ATOM     12  C   UNL     1       5.131   2.764 -22.497  0.00  0.00    -0.040 A 
ATOM     13  C   UNL     1       4.453   1.666 -22.336  0.00  0.00    +0.036 C 
ATOM     14  C   UNL     1       3.162   1.671 -22.486  0.00  0.00    +0.009 C 
ATOM     15  C   UNL     1       2.549   2.774 -22.798  0.00  0.00    +0.000 C 
ATOM     16  C   UNL     1      -0.627   3.625 -23.350  0.00  0.00    +0.121 C 
ATOM     17  C   UNL     1      -0.799   2.362 -23.094  0.00  0.00    +0.032 C 
ATOM     18  C   UNL     1       0.366   1.840 -22.846  0.00  0.00    +0.007 C 
ATOM     19  C   UNL     1       1.257   2.780 -22.948  0.00  0.00    +0.001 C 
ENDROOT
BRANCH   9  20
ATOM     20  O   UNL     1       8.392   3.851 -22.358  0.00  0.00    -0.506 OA
ATOM     21  H   UNL     1       8.871   4.654 -22.404  0.00  0.00    +0.292 HD
ENDBRANCH   9  20
BRANCH  16  22
ATOM     22  O   UNL     1      -1.561   4.479 -23.644  0.00  0.00    -0.391 OA
ATOM     23  H   UNL     1      -1.555   4.649 -24.600  0.00  0.00    +0.210 HD
ENDBRANCH  16  22
TORSDOF 2
ENDMDL
