MODEL 1
REMARK VINA RESULT:   -11.380      0.000      0.000
REMARK INTER + INTRA:         -12.646
REMARK INTER:                 -12.748
REMARK INTRA:                   0.102
REMARK UNBOUND:                 0.064
REMARK  Name = ZINC000013423762
REMARK  5 active torsions:
REMARK  status: ('A' for Active; 'I' for Inactive)
REMARK    1  A    between atoms: C_1  and  C_2
REMARK    2  A    between atoms: C_2  and  C_3
REMARK    3  A    between atoms: C_3  and  O_4
REMARK    4  A    between atoms: C_18  and  C_19
REMARK    5  A    between atoms: C_23  and  C_24
REMARK                            x       y       z     vdW  Elec       q    Type
REMARK                         _______ _______ _______ _____ _____    ______ ____
ROOT
ATOM      1  C   UNL     1      -4.710   3.232 -22.447  0.00  0.00    +0.071 C 
ATOM      2  C   UNL     1      -4.714   2.731 -21.236  0.00  0.00    +0.035 C 
ATOM      3  C   UNL     1      -3.489   2.360 -20.949  0.00  0.00    +0.007 C 
ATOM      4  C   UNL     1      -2.728   2.631 -21.978  0.00  0.00    +0.002 C 
ATOM      5  C   UNL     1      -1.448   2.457 -22.192  0.00  0.00    +0.004 C 
ATOM      6  C   UNL     1      -0.698   1.916 -21.259  0.00  0.00    +0.083 C 
ATOM      7  C   UNL     1       0.584   1.741 -21.471  0.00  0.00    +0.160 C 
ATOM      8  C   UNL     1       1.116   2.105 -22.611  0.00  0.00    +0.004 C 
ATOM      9  C   UNL     1       2.399   1.930 -22.823  0.00  0.00    +0.053 C 
ATOM     10  C   UNL     1       2.932   2.293 -23.964  0.00  0.00    +0.157 C 
ATOM     11  C   UNL     1       2.183   2.834 -24.897  0.00  0.00    +0.080 C 
ATOM     12  C   UNL     1       0.900   3.008 -24.683  0.00  0.00    +0.019 C 
ATOM     13  O   UNL     1       4.216   2.118 -24.175  0.00  0.00    -0.293 OA
ATOM     14  C   UNL     1       0.367   2.645 -23.544  0.00  0.00    -0.000 C 
ATOM     15  C   UNL     1      -0.382   3.185 -24.474  0.00  0.00    +0.016 C 
ATOM     16  O   UNL     1       1.334   1.201 -20.539  0.00  0.00    -0.292 OA
ATOM     17  C   UNL     1      -0.915   2.821 -23.333  0.00  0.00    +0.003 C 
ATOM     18  C   UNL     1      -1.666   3.361 -24.265  0.00  0.00    +0.005 C 
ATOM     19  C   UNL     1      -2.948   3.536 -24.051  0.00  0.00    +0.010 C 
ATOM     20  C   UNL     1      -3.479   3.172 -22.911  0.00  0.00    -0.000 C 
ATOM     21  C   UNL     1      -4.254   3.699 -23.800  0.00  0.00    +0.014 C 
ENDROOT
BRANCH   1  23
ATOM     22  C   UNL     1      -6.696   2.428 -21.667  0.00  0.00    +0.007 C 
ATOM     23  C   UNL     1      -5.993   3.389 -22.192  0.00  0.00    +0.032 C 
ENDBRANCH   1  23
BRANCH   1  24
ATOM     24  O   UNL     1      -5.033   3.659 -23.316  0.00  0.00    -0.388 OA
ATOM     25  H   UNL     1      -5.785   4.242 -23.131  0.00  0.00    +0.210 HD
ENDBRANCH   1  24
TORSDOF 2
ENDMDL
MODEL 2
REMARK VINA RESULT:   -10.892      1.344      2.798
REMARK INTER + INTRA:         -12.102
REMARK INTER:                 -12.322
REMARK INTRA:                   0.220
REMARK UNBOUND:                 0.064
REMARK  Name = ZINC000013423762
REMARK  5 active torsions:
REMARK  status: ('A' for Active; 'I' for Inactive)
REMARK    1  A    between atoms: C_1  and  C_2
REMARK    2  A    between atoms: C_2  and  C_3
REMARK    3  A    between atoms: C_3  and  O_4
REMARK    4  A    between atoms: C_18  and  C_19
REMARK    5  A    between atoms: C_23  and  C_24
REMARK                            x       y       z     vdW  Elec       q    Type
REMARK                         _______ _______ _______ _____ _____    ______ ____
ROOT
ATOM      1  C   UNL     1      -3.745   3.255 -22.610  0.00  0.00    +0.071 C 
ATOM      2  C   UNL     1      -3.781   3.715 -23.836  0.00  0.00    +0.035 C 
ATOM      3  C   UNL     1      -2.584   3.577 -24.354  0.00  0.00    +0.007 C 
ATOM      4  C   UNL     1      -1.808   3.033 -23.452  0.00  0.00    +0.002 C 
ATOM      5  C   UNL     1      -0.544   2.694 -23.472  0.00  0.00    +0.004 C 
ATOM      6  C   UNL     1       0.169   2.897 -24.557  0.00  0.00    +0.083 C 
ATOM      7  C   UNL     1       1.436   2.558 -24.580  0.00  0.00    +0.160 C 
ATOM      8  C   UNL     1       1.989   2.017 -23.523  0.00  0.00    +0.004 C 
ATOM      9  C   UNL     1       3.256   1.678 -23.545  0.00  0.00    +0.053 C 
ATOM     10  C   UNL     1       3.810   1.137 -22.488  0.00  0.00    +0.157 C 
ATOM     11  C   UNL     1       3.099   0.934 -21.404  0.00  0.00    +0.080 C 
ATOM     12  C   UNL     1       1.831   1.274 -21.383  0.00  0.00    +0.019 C 
ATOM     13  O   UNL     1       5.078   0.798 -22.512  0.00  0.00    -0.293 OA
ATOM     14  C   UNL     1       1.277   1.814 -22.439  0.00  0.00    -0.000 C 
ATOM     15  C   UNL     1       0.565   1.612 -21.357  0.00  0.00    +0.016 C 
ATOM     16  O   UNL     1       2.148   2.760 -25.662  0.00  0.00    -0.292 OA
ATOM     17  C   UNL     1       0.011   2.153 -22.415  0.00  0.00    +0.003 C 
ATOM     18  C   UNL     1      -0.703   1.950 -21.331  0.00  0.00    +0.005 C 
ATOM     19  C   UNL     1      -1.970   2.290 -21.310  0.00  0.00    +0.010 C 
ATOM     20  C   UNL     1      -2.522   2.830 -22.367  0.00  0.00    -0.000 C 
ATOM     21  C   UNL     1      -3.260   2.649 -21.323  0.00  0.00    +0.014 C 
ENDROOT
BRANCH   1  23
ATOM     22  C   UNL     1      -5.634   3.818 -23.756  0.00  0.00    +0.007 C 
ATOM     23  C   UNL     1      -5.013   3.610 -22.630  0.00  0.00    +0.032 C 
ENDBRANCH   1  23
BRANCH   1  24
ATOM     24  O   UNL     1      -4.039   2.989 -21.669  0.00  0.00    -0.388 OA
ATOM     25  H   UNL     1      -4.838   3.484 -21.428  0.00  0.00    +0.210 HD
ENDBRANCH   1  24
TORSDOF 2
ENDMDL
MODEL 3
REMARK VINA RESULT:   -10.647      1.672      2.503
REMARK INTER + INTRA:         -11.827
REMARK INTER:                 -11.914
REMARK INTRA:                   0.086
REMARK UNBOUND:                 0.064
REMARK  Name = ZINC000013423762
REMARK  5 active torsions:
REMARK  status: ('A' for Active; 'I' for Inactive)
REMARK    1  A    between atoms: C_1  and  C_2
REMARK    2  A    between atoms: C_2  and  C_3
REMARK    3  A    between atoms: C_3  and  O_4
REMARK    4  A    between atoms: C_18  and  C_19
REMARK    5  A    between atoms: C_23  and  C_24
REMARK                            x       y       z     vdW  Elec       q    Type
REMARK                         _______ _______ _______ _____ _____    ______ ____
ROOT
ATOM      1  C   UNL     1      -2.479   3.443 -22.863  0.00  0.00    +0.071 C 
ATOM      2  C   UNL     1      -2.734   2.395 -22.119  0.00  0.00    +0.035 C 
ATOM      3  C   UNL     1      -1.587   1.870 -21.756  0.00  0.00    +0.007 C 
ATOM      4  C   UNL     1      -0.625   2.592 -22.274  0.00  0.00    +0.002 C 
ATOM      5  C   UNL     1       0.678   2.489 -22.211  0.00  0.00    +0.004 C 
ATOM      6  C   UNL     1       1.224   1.512 -21.523  0.00  0.00    +0.083 C 
ATOM      7  C   UNL     1       2.529   1.408 -21.459  0.00  0.00    +0.160 C 
ATOM      8  C   UNL     1       3.288   2.276 -22.079  0.00  0.00    +0.004 C 
ATOM      9  C   UNL     1       4.594   2.172 -22.015  0.00  0.00    +0.053 C 
ATOM     10  C   UNL     1       5.354   3.040 -22.635  0.00  0.00    +0.157 C 
ATOM     11  C   UNL     1       4.810   4.017 -23.323  0.00  0.00    +0.080 C 
ATOM     12  C   UNL     1       3.503   4.120 -23.387  0.00  0.00    +0.019 C 
ATOM     13  O   UNL     1       6.661   2.935 -22.570  0.00  0.00    -0.293 OA
ATOM     14  C   UNL     1       2.743   3.253 -22.767  0.00  0.00    -0.000 C 
ATOM     15  C   UNL     1       2.198   4.228 -23.453  0.00  0.00    +0.016 C 
ATOM     16  O   UNL     1       3.075   0.432 -20.772  0.00  0.00    -0.292 OA
ATOM     17  C   UNL     1       1.438   3.358 -22.832  0.00  0.00    +0.003 C 
ATOM     18  C   UNL     1       0.892   4.334 -23.519  0.00  0.00    +0.005 C 
ATOM     19  C   UNL     1      -0.414   4.437 -23.582  0.00  0.00    +0.010 C 
ATOM     20  C   UNL     1      -1.172   3.569 -22.961  0.00  0.00    -0.000 C 
ATOM     21  C   UNL     1      -1.751   4.513 -23.626  0.00  0.00    +0.014 C 
ENDROOT
BRANCH   1  23
ATOM     22  C   UNL     1      -4.501   3.460 -21.809  0.00  0.00    +0.007 C 
ATOM     23  C   UNL     1      -3.795   3.510 -22.901  0.00  0.00    +0.032 C 
ENDBRANCH   1  23
BRANCH   1  24
ATOM     24  O   UNL     1      -2.617   4.269 -23.447  0.00  0.00    -0.388 OA
ATOM     25  H   UNL     1      -1.913   4.317 -24.112  0.00  0.00    +0.210 HD
ENDBRANCH   1  24
TORSDOF 2
ENDMDL
MODEL 4
REMARK VINA RESULT:   -10.279      1.412      6.067
REMARK INTER + INTRA:         -11.417
REMARK INTER:                 -11.472
REMARK INTRA:                   0.055
REMARK UNBOUND:                 0.064
REMARK  Name = ZINC000013423762
REMARK  5 active torsions:
REMARK  status: ('A' for Active; 'I' for Inactive)
REMARK    1  A    between atoms: C_1  and  C_2
REMARK    2  A    between atoms: C_2  and  C_3
REMARK    3  A    between atoms: C_3  and  O_4
REMARK    4  A    between atoms: C_18  and  C_19
REMARK    5  A    between atoms: C_23  and  C_24
REMARK                            x       y       z     vdW  Elec       q    Type
REMARK                         _______ _______ _______ _____ _____    ______ ____
ROOT
ATOM      1  C   UNL     1       2.966   1.704 -22.615  0.00  0.00    +0.071 C 
ATOM      2  C   UNL     1       2.739   1.288 -21.393  0.00  0.00    +0.035 C 
ATOM      3  C   UNL     1       1.466   1.473 -21.135  0.00  0.00    +0.007 C 
ATOM      4  C   UNL     1       0.906   2.001 -22.193  0.00  0.00    +0.002 C 
ATOM      5  C   UNL     1      -0.325   2.369 -22.442  0.00  0.00    +0.004 C 
ATOM      6  C   UNL     1      -1.250   2.223 -21.520  0.00  0.00    +0.083 C 
ATOM      7  C   UNL     1      -2.484   2.591 -21.767  0.00  0.00    +0.160 C 
ATOM      8  C   UNL     1      -2.794   3.104 -22.930  0.00  0.00    +0.004 C 
ATOM      9  C   UNL     1      -4.029   3.473 -23.178  0.00  0.00    +0.053 C 
ATOM     10  C   UNL     1      -4.341   3.986 -24.342  0.00  0.00    +0.157 C 
ATOM     11  C   UNL     1      -3.418   4.133 -25.265  0.00  0.00    +0.080 C 
ATOM     12  C   UNL     1      -2.183   3.764 -25.016  0.00  0.00    +0.019 C 
ATOM     13  O   UNL     1      -5.577   4.354 -24.588  0.00  0.00    -0.293 OA
ATOM     14  C   UNL     1      -1.871   3.251 -23.852  0.00  0.00    -0.000 C 
ATOM     15  C   UNL     1      -0.949   3.397 -24.772  0.00  0.00    +0.016 C 
ATOM     16  O   UNL     1      -3.407   2.445 -20.846  0.00  0.00    -0.292 OA
ATOM     17  C   UNL     1      -0.637   2.883 -23.607  0.00  0.00    +0.003 C 
ATOM     18  C   UNL     1       0.287   3.029 -24.528  0.00  0.00    +0.005 C 
ATOM     19  C   UNL     1       1.521   2.660 -24.279  0.00  0.00    +0.010 C 
ATOM     20  C   UNL     1       1.831   2.147 -23.115  0.00  0.00    -0.000 C 
ATOM     21  C   UNL     1       2.771   2.273 -23.992  0.00  0.00    +0.014 C 
ENDROOT
BRANCH   1  23
ATOM     22  C   UNL     1       4.875   1.908 -21.384  0.00  0.00    +0.007 C 
ATOM     23  C   UNL     1       4.193   1.321 -22.325  0.00  0.00    +0.032 C 
ENDBRANCH   1  23
BRANCH   1  24
ATOM     24  O   UNL     1       3.453   1.928 -23.484  0.00  0.00    -0.388 OA
ATOM     25  H   UNL     1       4.141   1.264 -23.650  0.00  0.00    +0.210 HD
ENDBRANCH   1  24
TORSDOF 2
ENDMDL
MODEL 5
REMARK VINA RESULT:    -9.667      1.947      6.585
REMARK INTER + INTRA:         -10.733
REMARK INTER:                 -10.787
REMARK INTRA:                   0.053
REMARK UNBOUND:                 0.064
REMARK  Name = ZINC000013423762
REMARK  5 active torsions:
REMARK  status: ('A' for Active; 'I' for Inactive)
REMARK    1  A    between atoms: C_1  and  C_2
REMARK    2  A    between atoms: C_2  and  C_3
REMARK    3  A    between atoms: C_3  and  O_4
REMARK    4  A    between atoms: C_18  and  C_19
REMARK    5  A    between atoms: C_23  and  C_24
REMARK                            x       y       z     vdW  Elec       q    Type
REMARK                         _______ _______ _______ _____ _____    ______ ____
ROOT
ATOM      1  C   UNL     1       4.610   3.316 -22.572  0.00  0.00    +0.071 C 
ATOM      2  C   UNL     1       4.661   2.246 -21.818  0.00  0.00    +0.035 C 
ATOM      3  C   UNL     1       3.432   1.828 -21.628  0.00  0.00    +0.007 C 
ATOM      4  C   UNL     1       2.622   2.637 -22.263  0.00  0.00    +0.002 C 
ATOM      5  C   UNL     1       1.319   2.655 -22.384  0.00  0.00    +0.004 C 
ATOM      6  C   UNL     1       0.595   1.730 -21.796  0.00  0.00    +0.083 C 
ATOM      7  C   UNL     1      -0.710   1.746 -21.917  0.00  0.00    +0.160 C 
ATOM      8  C   UNL     1      -1.292   2.682 -22.623  0.00  0.00    +0.004 C 
ATOM      9  C   UNL     1      -2.598   2.699 -22.744  0.00  0.00    +0.053 C 
ATOM     10  C   UNL     1      -3.181   3.636 -23.450  0.00  0.00    +0.157 C 
ATOM     11  C   UNL     1      -2.459   4.562 -24.038  0.00  0.00    +0.080 C 
ATOM     12  C   UNL     1      -1.153   4.544 -23.916  0.00  0.00    +0.019 C 
ATOM     13  O   UNL     1      -4.489   3.651 -23.570  0.00  0.00    -0.293 OA
ATOM     14  C   UNL     1      -0.570   3.608 -23.211  0.00  0.00    -0.000 C 
ATOM     15  C   UNL     1       0.153   4.531 -23.798  0.00  0.00    +0.016 C 
ATOM     16  O   UNL     1      -1.433   0.822 -21.330  0.00  0.00    -0.292 OA
ATOM     17  C   UNL     1       0.736   3.593 -23.091  0.00  0.00    +0.003 C 
ATOM     18  C   UNL     1       1.460   4.517 -23.678  0.00  0.00    +0.005 C 
ATOM     19  C   UNL     1       2.766   4.500 -23.557  0.00  0.00    +0.010 C 
ATOM     20  C   UNL     1       3.347   3.562 -22.851  0.00  0.00    -0.000 C 
ATOM     21  C   UNL     1       4.097   4.452 -23.412  0.00  0.00    +0.014 C 
ENDROOT
BRANCH   1  23
ATOM     22  C   UNL     1       6.473   3.474 -21.266  0.00  0.00    +0.007 C 
ATOM     23  C   UNL     1       5.918   3.263 -22.425  0.00  0.00    +0.032 C 
ENDBRANCH   1  23
BRANCH   1  24
ATOM     24  O   UNL     1       4.903   4.129 -23.117  0.00  0.00    -0.388 OA
ATOM     25  H   UNL     1       4.754   3.957 -24.060  0.00  0.00    +0.210 HD
ENDBRANCH   1  24
TORSDOF 2
ENDMDL
MODEL 6
REMARK VINA RESULT:    -9.017      2.486      3.995
REMARK INTER + INTRA:         -10.007
REMARK INTER:                 -10.067
REMARK INTRA:                   0.060
REMARK UNBOUND:                 0.064
REMARK  Name = ZINC000013423762
REMARK  5 active torsions:
REMARK  status: ('A' for Active; 'I' for Inactive)
REMARK    1  A    between atoms: C_1  and  C_2
REMARK    2  A    between atoms: C_2  and  C_3
REMARK    3  A    between atoms: C_3  and  O_4
REMARK    4  A    between atoms: C_18  and  C_19
REMARK    5  A    between atoms: C_23  and  C_24
REMARK                            x       y       z     vdW  Elec       q    Type
REMARK                         _______ _______ _______ _____ _____    ______ ____
ROOT
ATOM      1  C   UNL     1      -1.699   3.512 -23.734  0.00  0.00    +0.071 C 
ATOM      2  C   UNL     1      -1.941   4.767 -23.445  0.00  0.00    +0.035 C 
ATOM      3  C   UNL     1      -0.792   5.355 -23.213  0.00  0.00    +0.007 C 
ATOM      4  C   UNL     1       0.159   4.468 -23.357  0.00  0.00    +0.002 C 
ATOM      5  C   UNL     1       1.460   4.550 -23.237  0.00  0.00    +0.004 C 
ATOM      6  C   UNL     1       2.015   5.696 -22.914  0.00  0.00    +0.083 C 
ATOM      7  C   UNL     1       3.318   5.780 -22.794  0.00  0.00    +0.160 C 
ATOM      8  C   UNL     1       4.065   4.723 -22.995  0.00  0.00    +0.004 C 
ATOM      9  C   UNL     1       5.369   4.807 -22.875  0.00  0.00    +0.053 C 
ATOM     10  C   UNL     1       6.116   3.750 -23.076  0.00  0.00    +0.157 C 
ATOM     11  C   UNL     1       5.563   2.604 -23.398  0.00  0.00    +0.080 C 
ATOM     12  C   UNL     1       4.259   2.522 -23.519  0.00  0.00    +0.019 C 
ATOM     13  O   UNL     1       7.421   3.836 -22.955  0.00  0.00    -0.293 OA
ATOM     14  C   UNL     1       3.511   3.578 -23.318  0.00  0.00    -0.000 C 
ATOM     15  C   UNL     1       2.956   2.434 -23.640  0.00  0.00    +0.016 C 
ATOM     16  O   UNL     1       3.873   6.924 -22.471  0.00  0.00    -0.292 OA
ATOM     17  C   UNL     1       2.208   3.492 -23.439  0.00  0.00    +0.003 C 
ATOM     18  C   UNL     1       1.652   2.347 -23.761  0.00  0.00    +0.005 C 
ATOM     19  C   UNL     1       0.349   2.265 -23.882  0.00  0.00    +0.010 C 
ATOM     20  C   UNL     1      -0.398   3.322 -23.680  0.00  0.00    -0.000 C 
ATOM     21  C   UNL     1      -0.985   2.216 -23.996  0.00  0.00    +0.014 C 
ENDROOT
BRANCH   1  23
ATOM     22  C   UNL     1      -3.635   4.212 -24.715  0.00  0.00    +0.007 C 
ATOM     23  C   UNL     1      -3.012   3.472 -23.844  0.00  0.00    +0.032 C 
ENDBRANCH   1  23
BRANCH   1  24
ATOM     24  O   UNL     1      -1.846   2.533 -23.985  0.00  0.00    -0.388 OA
ATOM     25  H   UNL     1      -2.251   2.064 -23.237  0.00  0.00    +0.210 HD
ENDBRANCH   1  24
TORSDOF 2
ENDMDL
MODEL 7
REMARK VINA RESULT:    -8.978      2.738      4.431
REMARK INTER + INTRA:          -9.964
REMARK INTER:                 -10.041
REMARK INTRA:                   0.078
REMARK UNBOUND:                 0.064
REMARK  Name = ZINC000013423762
REMARK  5 active torsions:
REMARK  status: ('A' for Active; 'I' for Inactive)
REMARK    1  A    between atoms: C_1  and  C_2
REMARK    2  A    between atoms: C_2  and  C_3
REMARK    3  A    between atoms: C_3  and  O_4
REMARK    4  A    between atoms: C_18  and  C_19
REMARK    5  A    between atoms: C_23  and  C_24
REMARK                            x       y       z     vdW  Elec       q    Type
REMARK                         _______ _______ _______ _____ _____    ______ ____
ROOT
ATOM      1  C   UNL     1      -0.683   3.625 -23.264  0.00  0.00    +0.071 C 
ATOM      2  C   UNL     1      -0.791   2.329 -23.104  0.00  0.00    +0.035 C 
ATOM      3  C   UNL     1       0.417   1.839 -22.953  0.00  0.00    +0.007 C 
ATOM      4  C   UNL     1       1.270   2.829 -23.020  0.00  0.00    +0.002 C 
ATOM      5  C   UNL     1       2.575   2.868 -22.931  0.00  0.00    +0.004 C 
ATOM      6  C   UNL     1       3.250   1.757 -22.739  0.00  0.00    +0.083 C 
ATOM      7  C   UNL     1       4.558   1.793 -22.649  0.00  0.00    +0.160 C 
ATOM      8  C   UNL     1       5.191   2.935 -22.752  0.00  0.00    +0.004 C 
ATOM      9  C   UNL     1       6.499   2.972 -22.662  0.00  0.00    +0.053 C 
ATOM     10  C   UNL     1       7.133   4.114 -22.765  0.00  0.00    +0.157 C 
ATOM     11  C   UNL     1       6.460   5.225 -22.957  0.00  0.00    +0.080 C 
ATOM     12  C   UNL     1       5.151   5.187 -23.047  0.00  0.00    +0.019 C 
ATOM     13  O   UNL     1       8.442   4.150 -22.675  0.00  0.00    -0.293 OA
ATOM     14  C   UNL     1       4.517   4.046 -22.944  0.00  0.00    -0.000 C 
ATOM     15  C   UNL     1       3.843   5.154 -23.136  0.00  0.00    +0.016 C 
ATOM     16  O   UNL     1       5.232   0.684 -22.457  0.00  0.00    -0.292 OA
ATOM     17  C   UNL     1       3.210   4.010 -23.034  0.00  0.00    +0.003 C 
ATOM     18  C   UNL     1       2.534   5.120 -23.226  0.00  0.00    +0.005 C 
ATOM     19  C   UNL     1       1.226   5.082 -23.316  0.00  0.00    +0.010 C 
ATOM     20  C   UNL     1       0.594   3.939 -23.213  0.00  0.00    -0.000 C 
ATOM     21  C   UNL     1      -0.108   5.007 -23.402  0.00  0.00    +0.014 C 
ENDROOT
BRANCH   1  23
ATOM     22  C   UNL     1      -2.733   3.459 -22.278  0.00  0.00    +0.007 C 
ATOM     23  C   UNL     1      -1.995   3.542 -23.348  0.00  0.00    +0.032 C 
ENDBRANCH   1  23
BRANCH   1  24
ATOM     24  O   UNL     1      -0.933   4.604 -23.409  0.00  0.00    -0.388 OA
ATOM     25  H   UNL     1      -1.849   4.661 -23.724  0.00  0.00    +0.210 HD
ENDBRANCH   1  24
TORSDOF 2
ENDMDL
MODEL 8
REMARK VINA RESULT:    -8.466      3.715      8.091
REMARK INTER + INTRA:          -9.392
REMARK INTER:                  -9.468
REMARK INTRA:                   0.076
REMARK UNBOUND:                 0.064
REMARK  Name = ZINC000013423762
REMARK  5 active torsions:
REMARK  status: ('A' for Active; 'I' for Inactive)
REMARK    1  A    between atoms: C_1  and  C_2
REMARK    2  A    between atoms: C_2  and  C_3
REMARK    3  A    between atoms: C_3  and  O_4
REMARK    4  A    between atoms: C_18  and  C_19
REMARK    5  A    between atoms: C_23  and  C_24
REMARK                            x       y       z     vdW  Elec       q    Type
REMARK                         _______ _______ _______ _____ _____    ______ ____
ROOT
ATOM      1  C   UNL     1       6.929   5.266 -22.285  0.00  0.00    +0.071 C 
ATOM      2  C   UNL     1       7.470   4.103 -22.553  0.00  0.00    +0.035 C 
ATOM      3  C   UNL     1       6.522   3.312 -22.998  0.00  0.00    +0.007 C 
ATOM      4  C   UNL     1       5.399   3.982 -23.005  0.00  0.00    +0.002 C 
ATOM      5  C   UNL     1       4.182   3.650 -23.355  0.00  0.00    +0.004 C 
ATOM      6  C   UNL     1       3.938   2.436 -23.797  0.00  0.00    +0.083 C 
ATOM      7  C   UNL     1       2.720   2.101 -24.148  0.00  0.00    +0.160 C 
ATOM      8  C   UNL     1       1.748   2.974 -24.059  0.00  0.00    +0.004 C 
ATOM      9  C   UNL     1       0.530   2.639 -24.411  0.00  0.00    +0.053 C 
ATOM     10  C   UNL     1      -0.443   3.512 -24.322  0.00  0.00    +0.157 C 
ATOM     11  C   UNL     1      -0.201   4.725 -23.881  0.00  0.00    +0.080 C 
ATOM     12  C   UNL     1       1.019   5.059 -23.530  0.00  0.00    +0.019 C 
ATOM     13  O   UNL     1      -1.662   3.175 -24.674  0.00  0.00    -0.293 OA
ATOM     14  C   UNL     1       1.992   4.187 -23.618  0.00  0.00    -0.000 C 
ATOM     15  C   UNL     1       2.235   5.397 -23.178  0.00  0.00    +0.016 C 
ATOM     16  O   UNL     1       2.476   0.890 -24.589  0.00  0.00    -0.292 OA
ATOM     17  C   UNL     1       3.209   4.523 -23.267  0.00  0.00    +0.003 C 
ATOM     18  C   UNL     1       3.454   5.735 -22.826  0.00  0.00    +0.005 C 
ATOM     19  C   UNL     1       4.673   6.069 -22.475  0.00  0.00    +0.010 C 
ATOM     20  C   UNL     1       5.644   5.195 -22.564  0.00  0.00    -0.000 C 
ATOM     21  C   UNL     1       5.928   6.377 -22.125  0.00  0.00    +0.014 C 
ENDROOT
BRANCH   1  23
ATOM     22  C   UNL     1       8.645   5.208 -20.784  0.00  0.00    +0.007 C 
ATOM     23  C   UNL     1       8.167   5.561 -21.942  0.00  0.00    +0.032 C 
ENDBRANCH   1  23
BRANCH   1  24
ATOM     24  O   UNL     1       6.826   6.239 -21.990  0.00  0.00    -0.388 OA
ATOM     25  H   UNL     1       6.820   6.815 -22.771  0.00  0.00    +0.210 HD
ENDBRANCH   1  24
TORSDOF 2
ENDMDL
